26204131
  -OEChem-12232402243D

 72 74  0     1  0  0  0  0  0999 V2000
   -1.3363    3.8440   -2.6511 O   0  0  0  0  0  0  0  0  0  0  0  0
   -0.7081   -1.3379    2.1955 O   0  0  0  0  0  0  0  0  0  0  0  0
    1.3449   -1.6288    0.0824 O   0  0  0  0  0  0  0  0  0  0  0  0
   -4.7241   -1.4110   -0.3522 O   0  0  0  0  0  0  0  0  0  0  0  0
    4.4367    1.8114    1.1973 O   0  0  0  0  0  0  0  0  0  0  0  0
   -3.1972   -2.3421    1.7569 O   0  0  0  0  0  0  0  0  0  0  0  0
    3.8978   -0.8282    0.5737 O   0  0  0  0  0  0  0  0  0  0  0  0
    1.6716   -1.0249   -2.1468 O   0  0  0  0  0  0  0  0  0  0  0  0
   -1.4949    3.1434   -1.3964 C   0  0  2  0  0  0  0  0  0  0  0  0
   -0.4603    3.7659   -0.4013 C   0  0  2  0  0  0  0  0  0  0  0  0
   -1.1954    1.6622   -1.7580 C   0  0  0  0  0  0  0  0  0  0  0  0
   -0.2937    2.9964    0.9272 C   0  0  0  0  0  0  0  0  0  0  0  0
   -1.6727    0.5952   -0.7938 C   0  0  0  0  0  0  0  0  0  0  0  0
    0.7806    1.9329    0.8386 C   0  0  0  0  0  0  0  0  0  0  0  0
   -2.9562    3.3496   -0.9663 C   0  0  0  0  0  0  0  0  0  0  0  0
   -0.7608    5.2420   -0.0759 C   0  0  0  0  0  0  0  0  0  0  0  0
   -0.8785    0.1120    0.2691 C   0  0  0  0  0  0  0  0  0  0  0  0
    0.4931    0.5902    0.5182 C   0  0  0  0  0  0  0  0  0  0  0  0
   -2.9613    0.0572   -0.9852 C   0  0  0  0  0  0  0  0  0  0  0  0
    2.1163    2.3215    1.0603 C   0  0  0  0  0  0  0  0  0  0  0  0
   -1.4169   -0.8799    1.1161 C   0  0  0  0  0  0  0  0  0  0  0  0
    1.5638   -0.3243    0.4392 C   0  0  0  0  0  0  0  0  0  0  0  0
   -3.4710   -0.9234   -0.1368 C   0  0  0  0  0  0  0  0  0  0  0  0
    3.1574    1.3998    0.9772 C   0  0  0  0  0  0  0  0  0  0  0  0
   -2.6992   -1.3901    0.9176 C   0  0  0  0  0  0  0  0  0  0  0  0
    2.8810    0.0753    0.6665 C   0  0  0  0  0  0  0  0  0  0  0  0
   -0.8988   -0.6488    3.4255 C   0  0  0  0  0  0  0  0  0  0  0  0
    1.4251   -1.8657   -1.2932 C   0  0  0  0  0  0  0  0  0  0  0  0
   -5.8018   -0.7390    0.2976 C   0  0  0  0  0  0  0  0  0  0  0  0
    5.1738    2.2706    0.0655 C   0  0  0  0  0  0  0  0  0  0  0  0
   -2.9589   -3.7031    1.4052 C   0  0  0  0  0  0  0  0  0  0  0  0
    4.2579   -1.5213    1.7667 C   0  0  0  0  0  0  0  0  0  0  0  0
    1.1716   -3.3124   -1.5730 C   0  0  0  0  0  0  0  0  0  0  0  0
   -0.1638   -3.8847   -1.2018 C   0  0  0  0  0  0  0  0  0  0  0  0
    2.1751   -3.9768   -2.1750 C   0  0  0  0  0  0  0  0  0  0  0  0
    3.5031   -3.4274   -2.5895 C   0  0  0  0  0  0  0  0  0  0  0  0
    0.5067    3.7881   -0.9257 H   0  0  0  0  0  0  0  0  0  0  0  0
   -0.1228    1.5390   -1.9604 H   0  0  0  0  0  0  0  0  0  0  0  0
   -1.6455    1.4367   -2.7370 H   0  0  0  0  0  0  0  0  0  0  0  0
   -1.2427    2.5779    1.2788 H   0  0  0  0  0  0  0  0  0  0  0  0
    0.0053    3.6857    1.7294 H   0  0  0  0  0  0  0  0  0  0  0  0
   -3.2159    4.4138   -0.9462 H   0  0  0  0  0  0  0  0  0  0  0  0
   -3.1669    2.9265    0.0196 H   0  0  0  0  0  0  0  0  0  0  0  0
   -3.6438    2.9011   -1.6927 H   0  0  0  0  0  0  0  0  0  0  0  0
   -1.6537    5.3431    0.5496 H   0  0  0  0  0  0  0  0  0  0  0  0
   -0.9097    5.8281   -0.9882 H   0  0  0  0  0  0  0  0  0  0  0  0
    0.0773    5.6922    0.4679 H   0  0  0  0  0  0  0  0  0  0  0  0
   -2.0332    3.5426   -3.2588 H   0  0  0  0  0  0  0  0  0  0  0  0
   -3.5768    0.4108   -1.8104 H   0  0  0  0  0  0  0  0  0  0  0  0
    2.3432    3.3590    1.2988 H   0  0  0  0  0  0  0  0  0  0  0  0
   -1.9224   -0.7855    3.7881 H   0  0  0  0  0  0  0  0  0  0  0  0
   -0.6817    0.4186    3.3191 H   0  0  0  0  0  0  0  0  0  0  0  0
   -0.2106   -1.0702    4.1635 H   0  0  0  0  0  0  0  0  0  0  0  0
   -6.7326   -1.2470    0.0312 H   0  0  0  0  0  0  0  0  0  0  0  0
   -5.8621    0.3014   -0.0373 H   0  0  0  0  0  0  0  0  0  0  0  0
   -5.6805   -0.7777    1.3847 H   0  0  0  0  0  0  0  0  0  0  0  0
    6.1751    2.5541    0.4009 H   0  0  0  0  0  0  0  0  0  0  0  0
    4.6906    3.1480   -0.3760 H   0  0  0  0  0  0  0  0  0  0  0  0
    5.2666    1.4765   -0.6821 H   0  0  0  0  0  0  0  0  0  0  0  0
   -3.6170   -4.3323    2.0107 H   0  0  0  0  0  0  0  0  0  0  0  0
   -1.9222   -3.9695    1.6291 H   0  0  0  0  0  0  0  0  0  0  0  0
   -3.1768   -3.8865    0.3481 H   0  0  0  0  0  0  0  0  0  0  0  0
    5.0717   -2.2118    1.5287 H   0  0  0  0  0  0  0  0  0  0  0  0
    3.4098   -2.0990    2.1476 H   0  0  0  0  0  0  0  0  0  0  0  0
    4.6069   -0.8187    2.5299 H   0  0  0  0  0  0  0  0  0  0  0  0
   -0.2629   -3.9301   -0.1139 H   0  0  0  0  0  0  0  0  0  0  0  0
   -0.2919   -4.8979   -1.5960 H   0  0  0  0  0  0  0  0  0  0  0  0
   -0.9711   -3.2636   -1.6028 H   0  0  0  0  0  0  0  0  0  0  0  0
    2.0170   -5.0265   -2.4157 H   0  0  0  0  0  0  0  0  0  0  0  0
    3.5297   -3.2927   -3.6750 H   0  0  0  0  0  0  0  0  0  0  0  0
    3.7655   -2.4818   -2.1096 H   0  0  0  0  0  0  0  0  0  0  0  0
    4.2869   -4.1434   -2.3197 H   0  0  0  0  0  0  0  0  0  0  0  0
  1  9  1  0  0  0  0
  1 48  1  0  0  0  0
  2 21  1  0  0  0  0
  2 27  1  0  0  0  0
  3 22  1  0  0  0  0
  3 28  1  0  0  0  0
  4 23  1  0  0  0  0
  4 29  1  0  0  0  0
  5 24  1  0  0  0  0
  5 30  1  0  0  0  0
  6 25  1  0  0  0  0
  6 31  1  0  0  0  0
  7 26  1  0  0  0  0
  7 32  1  0  0  0  0
  8 28  2  0  0  0  0
  9 10  1  0  0  0  0
  9 11  1  0  0  0  0
  9 15  1  0  0  0  0
 10 12  1  0  0  0  0
 10 16  1  0  0  0  0
 10 37  1  0  0  0  0
 11 13  1  0  0  0  0
 11 38  1  0  0  0  0
 11 39  1  0  0  0  0
 12 14  1  0  0  0  0
 12 40  1  0  0  0  0
 12 41  1  0  0  0  0
 13 17  1  0  0  0  0
 13 19  2  0  0  0  0
 14 18  1  0  0  0  0
 14 20  2  0  0  0  0
 15 42  1  0  0  0  0
 15 43  1  0  0  0  0
 15 44  1  0  0  0  0
 16 45  1  0  0  0  0
 16 46  1  0  0  0  0
 16 47  1  0  0  0  0
 17 18  1  0  0  0  0
 17 21  2  0  0  0  0
 18 22  2  0  0  0  0
 19 23  1  0  0  0  0
 19 49  1  0  0  0  0
 20 24  1  0  0  0  0
 20 50  1  0  0  0  0
 21 25  1  0  0  0  0
 22 26  1  0  0  0  0
 23 25  2  0  0  0  0
 24 26  2  0  0  0  0
 27 51  1  0  0  0  0
 27 52  1  0  0  0  0
 27 53  1  0  0  0  0
 28 33  1  0  0  0  0
 29 54  1  0  0  0  0
 29 55  1  0  0  0  0
 29 56  1  0  0  0  0
 30 57  1  0  0  0  0
 30 58  1  0  0  0  0
 30 59  1  0  0  0  0
 31 60  1  0  0  0  0
 31 61  1  0  0  0  0
 31 62  1  0  0  0  0
 32 63  1  0  0  0  0
 32 64  1  0  0  0  0
 32 65  1  0  0  0  0
 33 34  1  0  0  0  0
 33 35  2  0  0  0  0
 34 66  1  0  0  0  0
 34 67  1  0  0  0  0
 34 68  1  0  0  0  0
 35 36  1  0  0  0  0
 35 69  1  0  0  0  0
 36 70  1  0  0  0  0
 36 71  1  0  0  0  0
 36 72  1  0  0  0  0
M  END
> <PUBCHEM_COMPOUND_CID>
26204131

> <PUBCHEM_CONFORMER_RMSD>
1

> <PUBCHEM_CONFORMER_DIVERSEORDER>
1
21
13
29
8
26
10
11
2
17
16
27
25
9
30
15
18
28
19
7
12
22
24
20
6
14
3
23
4
5

> <PUBCHEM_MMFF94_PARTIAL_CHARGES>
35
1 -0.68
11 0.14
12 0.14
13 -0.14
14 -0.14
19 -0.15
2 -0.36
20 -0.15
21 0.08
22 0.08
23 0.08
24 0.08
25 0.08
26 0.08
27 0.28
28 0.71
29 0.28
3 -0.23
30 0.28
31 0.28
32 0.28
33 -0.12
34 0.14
35 -0.29
36 0.14
4 -0.36
48 0.4
49 0.15
5 -0.36
50 0.15
6 -0.36
69 0.15
7 -0.36
8 -0.57
9 0.28

> <PUBCHEM_EFFECTIVE_ROTOR_COUNT>
8.8

> <PUBCHEM_PHARMACOPHORE_FEATURES>
12
1 1 acceptor
1 1 donor
1 2 acceptor
1 34 hydrophobe
1 36 hydrophobe
1 4 acceptor
1 5 acceptor
1 6 acceptor
1 7 acceptor
1 8 acceptor
6 13 17 19 21 23 25 rings
6 14 18 20 22 24 26 rings

> <PUBCHEM_HEAVY_ATOM_COUNT>
36

> <PUBCHEM_ATOM_DEF_STEREO_COUNT>
2

> <PUBCHEM_ATOM_UDEF_STEREO_COUNT>
0

> <PUBCHEM_BOND_DEF_STEREO_COUNT>
1

> <PUBCHEM_BOND_UDEF_STEREO_COUNT>
0

> <PUBCHEM_ISOTOPIC_ATOM_COUNT>
0

> <PUBCHEM_COMPONENT_COUNT>
1

> <PUBCHEM_CACTVS_TAUTO_COUNT>
1

> <PUBCHEM_CONFORMER_ID>
018FD7E300000001

> <PUBCHEM_MMFF94_ENERGY>
177.7194

> <PUBCHEM_FEATURE_SELFOVERLAP>
60.916

> <PUBCHEM_SHAPE_FINGERPRINT>
10305334 12 17325735134386331642
10675989 125 16465590357857423294
10906281 52 18188784949557635265
11578080 2 18127714650435246076
11828532 37 17459749423229571179
12160290 23 17680448666358493905
12293681 25 17912072863659886958
12788726 201 18041577844510558189
13149001 5 17764313842779051060
13583140 156 17900250102889720747
140371 6 18335989774198169521
14251757 17 17694212275415561277
15324884 4 18194669599976430201
15420108 30 17548405364162801121
15775530 1 18125441908508296276
20600515 1 17458344173794932541
20775438 99 17335029301600593623
21033648 29 17701248372349562553
21285901 2 18408318891388117317
22182313 1 17914606156047039182
2260408 40 18055667081494624259
229495 10 17845923036071614741
23557571 272 18334298625907429703
23559900 14 18040701577104298720
3380486 145 18042695068541389011
3493558 16 15793989366687454204
57527585 103 18123481474917746626
6004065 56 18267289010956237223
6669772 16 17617927041878091690
70251023 43 18126582136442564191

> <PUBCHEM_SHAPE_MULTIPOLES>
693.91
7.56
6.28
2.48
0.78
2.14
0.18
-2.16
0.7
-0.33
-2.87
0.47
-1.25
4.16

> <PUBCHEM_SHAPE_SELFOVERLAP>
1471.997

> <PUBCHEM_SHAPE_VOLUME>
387.7

> <PUBCHEM_COORDINATE_TYPE>
2
5
10

$$$$
