158103
  -OEChem-12232402213D

 57 60  0     1  0  0  0  0  0999 V2000
   -4.9228    0.6069   -0.5106 O   0  0  0  0  0  0  0  0  0  0  0  0
   -3.7372    2.1833    0.8715 O   0  0  0  0  0  0  0  0  0  0  0  0
   -0.9434    2.0531    1.3466 O   0  0  0  0  0  0  0  0  0  0  0  0
    0.8460    2.1790   -1.0399 O   0  0  0  0  0  0  0  0  0  0  0  0
    4.7817    0.0440    0.5692 O   0  0  0  0  0  0  0  0  0  0  0  0
    3.5419    2.1797   -0.6761 O   0  0  0  0  0  0  0  0  0  0  0  0
   -0.7430   -3.3146   -0.8107 C   0  0  2  0  0  0  0  0  0  0  0  0
    0.4782   -3.3674    0.1545 C   0  0  1  0  0  0  0  0  0  0  0  0
   -0.8587   -1.9905   -1.6079 C   0  0  0  0  0  0  0  0  0  0  0  0
    0.5191   -2.2486    1.2152 C   0  0  0  0  0  0  0  0  0  0  0  0
   -1.5429   -0.8303   -0.9093 C   0  0  0  0  0  0  0  0  0  0  0  0
    1.2697   -1.0312    0.7167 C   0  0  0  0  0  0  0  0  0  0  0  0
   -0.8356    0.1090   -0.1051 C   0  0  0  0  0  0  0  0  0  0  0  0
    0.6259    0.0513    0.0833 C   0  0  0  0  0  0  0  0  0  0  0  0
   -2.0684   -3.7326   -0.1600 C   0  0  0  0  0  0  0  0  0  0  0  0
    0.5899   -4.7337    0.8481 C   0  0  0  0  0  0  0  0  0  0  0  0
   -2.9372   -0.6910   -1.0828 C   0  0  0  0  0  0  0  0  0  0  0  0
   -1.5522    1.1521    0.5246 C   0  0  0  0  0  0  0  0  0  0  0  0
    2.6704   -1.0125    0.8670 C   0  0  0  0  0  0  0  0  0  0  0  0
    1.4166    1.1257   -0.3755 C   0  0  0  0  0  0  0  0  0  0  0  0
   -3.5894    0.3444   -0.4495 C   0  0  0  0  0  0  0  0  0  0  0  0
   -2.9152    1.2406    0.3361 C   0  0  0  0  0  0  0  0  0  0  0  0
    3.4299    0.0607    0.4070 C   0  0  0  0  0  0  0  0  0  0  0  0
    2.8023    1.1311   -0.2153 C   0  0  0  0  0  0  0  0  0  0  0  0
   -5.0103    1.7751    0.3305 C   0  0  0  0  0  0  0  0  0  0  0  0
   -0.8800    1.7248    2.7326 C   0  0  0  0  0  0  0  0  0  0  0  0
    0.7556    2.0699   -2.4556 C   0  0  0  0  0  0  0  0  0  0  0  0
    5.5535   -0.5426   -0.4774 C   0  0  0  0  0  0  0  0  0  0  0  0
    3.2558    3.4640   -0.1271 C   0  0  0  0  0  0  0  0  0  0  0  0
   -0.5358   -4.0829   -1.5714 H   0  0  0  0  0  0  0  0  0  0  0  0
    1.3745   -3.2860   -0.4778 H   0  0  0  0  0  0  0  0  0  0  0  0
   -1.4239   -2.2020   -2.5274 H   0  0  0  0  0  0  0  0  0  0  0  0
    0.1284   -1.6815   -1.9742 H   0  0  0  0  0  0  0  0  0  0  0  0
    1.0378   -2.6018    2.1175 H   0  0  0  0  0  0  0  0  0  0  0  0
   -0.4823   -1.9815    1.5690 H   0  0  0  0  0  0  0  0  0  0  0  0
   -2.3281   -3.0994    0.6931 H   0  0  0  0  0  0  0  0  0  0  0  0
   -2.8872   -3.6868   -0.8860 H   0  0  0  0  0  0  0  0  0  0  0  0
   -2.0275   -4.7677    0.1935 H   0  0  0  0  0  0  0  0  0  0  0  0
    1.5575   -4.8268    1.3539 H   0  0  0  0  0  0  0  0  0  0  0  0
   -0.1906   -4.8708    1.6034 H   0  0  0  0  0  0  0  0  0  0  0  0
    0.5191   -5.5502    0.1219 H   0  0  0  0  0  0  0  0  0  0  0  0
   -3.4955   -1.3877   -1.7010 H   0  0  0  0  0  0  0  0  0  0  0  0
    3.1723   -1.8510    1.3465 H   0  0  0  0  0  0  0  0  0  0  0  0
   -5.4230    2.6021   -0.2587 H   0  0  0  0  0  0  0  0  0  0  0  0
   -5.6920    1.5597    1.1612 H   0  0  0  0  0  0  0  0  0  0  0  0
   -0.3816    0.7628    2.8865 H   0  0  0  0  0  0  0  0  0  0  0  0
   -1.8851    1.6980    3.1650 H   0  0  0  0  0  0  0  0  0  0  0  0
   -0.3023    2.5014    3.2413 H   0  0  0  0  0  0  0  0  0  0  0  0
    1.7532    2.0492   -2.9054 H   0  0  0  0  0  0  0  0  0  0  0  0
    0.2241    2.9481   -2.8326 H   0  0  0  0  0  0  0  0  0  0  0  0
    0.1977    1.1752   -2.7484 H   0  0  0  0  0  0  0  0  0  0  0  0
    5.3982   -0.0056   -1.4185 H   0  0  0  0  0  0  0  0  0  0  0  0
    5.2930   -1.5988   -0.5996 H   0  0  0  0  0  0  0  0  0  0  0  0
    6.6100   -0.4721   -0.2047 H   0  0  0  0  0  0  0  0  0  0  0  0
    2.7996    3.4000    0.8672 H   0  0  0  0  0  0  0  0  0  0  0  0
    2.6086    4.0257   -0.8064 H   0  0  0  0  0  0  0  0  0  0  0  0
    4.2003    4.0080   -0.0338 H   0  0  0  0  0  0  0  0  0  0  0  0
  1 21  1  0  0  0  0
  1 25  1  0  0  0  0
  2 22  1  0  0  0  0
  2 25  1  0  0  0  0
  3 18  1  0  0  0  0
  3 26  1  0  0  0  0
  4 20  1  0  0  0  0
  4 27  1  0  0  0  0
  5 23  1  0  0  0  0
  5 28  1  0  0  0  0
  6 24  1  0  0  0  0
  6 29  1  0  0  0  0
  7  8  1  0  0  0  0
  7  9  1  0  0  0  0
  7 15  1  0  0  0  0
  7 30  1  0  0  0  0
  8 10  1  0  0  0  0
  8 16  1  0  0  0  0
  8 31  1  0  0  0  0
  9 11  1  0  0  0  0
  9 32  1  0  0  0  0
  9 33  1  0  0  0  0
 10 12  1  0  0  0  0
 10 34  1  0  0  0  0
 10 35  1  0  0  0  0
 11 13  1  0  0  0  0
 11 17  2  0  0  0  0
 12 14  1  0  0  0  0
 12 19  2  0  0  0  0
 13 14  1  0  0  0  0
 13 18  2  0  0  0  0
 14 20  2  0  0  0  0
 15 36  1  0  0  0  0
 15 37  1  0  0  0  0
 15 38  1  0  0  0  0
 16 39  1  0  0  0  0
 16 40  1  0  0  0  0
 16 41  1  0  0  0  0
 17 21  1  0  0  0  0
 17 42  1  0  0  0  0
 18 22  1  0  0  0  0
 19 23  1  0  0  0  0
 19 43  1  0  0  0  0
 20 24  1  0  0  0  0
 21 22  2  0  0  0  0
 23 24  2  0  0  0  0
 25 44  1  0  0  0  0
 25 45  1  0  0  0  0
 26 46  1  0  0  0  0
 26 47  1  0  0  0  0
 26 48  1  0  0  0  0
 27 49  1  0  0  0  0
 27 50  1  0  0  0  0
 27 51  1  0  0  0  0
 28 52  1  0  0  0  0
 28 53  1  0  0  0  0
 28 54  1  0  0  0  0
 29 55  1  0  0  0  0
 29 56  1  0  0  0  0
 29 57  1  0  0  0  0
M  END
> <PUBCHEM_COMPOUND_CID>
158103

> <PUBCHEM_CONFORMER_RMSD>
0.8

> <PUBCHEM_CONFORMER_DIVERSEORDER>
3
1
8
7
5
6
4
2

> <PUBCHEM_MMFF94_PARTIAL_CHARGES>
25
1 -0.36
10 0.14
11 -0.14
12 -0.14
17 -0.15
18 0.08
19 -0.15
2 -0.36
20 0.08
21 0.08
22 0.08
23 0.08
24 0.08
25 0.56
26 0.28
27 0.28
28 0.28
29 0.28
3 -0.36
4 -0.36
42 0.15
43 0.15
5 -0.36
6 -0.36
9 0.14

> <PUBCHEM_EFFECTIVE_ROTOR_COUNT>
5.4

> <PUBCHEM_PHARMACOPHORE_FEATURES>
9
1 1 acceptor
1 2 acceptor
1 3 acceptor
1 4 acceptor
1 5 acceptor
1 6 acceptor
5 1 2 21 22 25 rings
6 11 13 17 18 21 22 rings
6 12 14 19 20 23 24 rings

> <PUBCHEM_HEAVY_ATOM_COUNT>
29

> <PUBCHEM_ATOM_DEF_STEREO_COUNT>
2

> <PUBCHEM_ATOM_UDEF_STEREO_COUNT>
0

> <PUBCHEM_BOND_DEF_STEREO_COUNT>
0

> <PUBCHEM_BOND_UDEF_STEREO_COUNT>
0

> <PUBCHEM_ISOTOPIC_ATOM_COUNT>
0

> <PUBCHEM_COMPONENT_COUNT>
1

> <PUBCHEM_CACTVS_TAUTO_COUNT>
1

> <PUBCHEM_CONFORMER_ID>
0002699700000003

> <PUBCHEM_MMFF94_ENERGY>
138.4686

> <PUBCHEM_FEATURE_SELFOVERLAP>
45.84

> <PUBCHEM_SHAPE_FINGERPRINT>
10382601 240 18122067507191088139
10906281 52 17315378945669402836
1100329 8 18411132567597918824
11513181 2 17845365558018175999
11578080 2 16985743418447340466
12236239 1 18413105039459936601
12422481 6 17756403994730594088
12592029 89 18336831883808152107
12788726 201 17979070810045428734
13140716 1 18335979847868858930
133893 2 17834425344127193161
14178342 30 17902500825199097800
14790565 3 18408889499374144748
14840074 17 18113342977203922020
14955137 171 18262813877628045764
15420108 30 17122562947699588536
16945 1 18264755585145432431
17138139 8 17914584350777613799
18681886 176 18412819175406373600
20715895 44 17333363503516622321
20739085 24 17979071583255450187
20775438 99 16186315017929782494
21421861 104 17696767562514652105
23419403 2 11920401363579255447
23558518 356 18045222901550451198
23559900 14 18130231557812080852
23598288 3 18128536170194025590
350125 39 18191024702030123295
35225 105 17467960596616874535
3633792 109 18266154249930652013
394222 165 18335979788003145955
404807 14 15260347600211089134
474 4 18408603630328826923
484989 97 18193266623952252335
7164475 11 18050849115640307318
90316 7 16394089112060730947
9981440 41 17548123885413421528

> <PUBCHEM_SHAPE_MULTIPOLES>
561.59
7.72
4.72
1.58
1.52
4.73
-0.15
-4.76
0.32
0
-0.35
-0.24
-0.65
-1.52

> <PUBCHEM_SHAPE_SELFOVERLAP>
1220.146

> <PUBCHEM_SHAPE_VOLUME>
307.6

> <PUBCHEM_COORDINATE_TYPE>
2
5
10

$$$$
