128150
  -OEChem-12232402273D

 54 57  0     1  0  0  0  0  0999 V2000
   -4.8849    0.8696   -0.3622 O   0  0  0  0  0  0  0  0  0  0  0  0
   -3.5192    2.4561    0.8289 O   0  0  0  0  0  0  0  0  0  0  0  0
   -0.7078    2.1986    1.1080 O   0  0  0  0  0  0  0  0  0  0  0  0
    0.9004    2.0843   -1.4049 O   0  0  0  0  0  0  0  0  0  0  0  0
    4.8320   -0.1683    0.0462 O   0  0  0  0  0  0  0  0  0  0  0  0
    3.6125    1.9562   -1.2377 O   0  0  0  0  0  0  0  0  0  0  0  0
   -0.9459   -3.2894   -0.7172 C   0  0  2  0  0  0  0  0  0  0  0  0
    0.3405   -3.3533    0.1585 C   0  0  1  0  0  0  0  0  0  0  0  0
   -1.0535   -2.0100   -1.5854 C   0  0  0  0  0  0  0  0  0  0  0  0
    0.5186   -2.1781    1.1413 C   0  0  0  0  0  0  0  0  0  0  0  0
   -1.6227   -0.7745   -0.9134 C   0  0  0  0  0  0  0  0  0  0  0  0
    1.2907   -1.0358    0.5145 C   0  0  0  0  0  0  0  0  0  0  0  0
   -0.8096    0.1696   -0.2229 C   0  0  0  0  0  0  0  0  0  0  0  0
   -2.2380   -3.5940    0.0525 C   0  0  0  0  0  0  0  0  0  0  0  0
    0.4342   -4.6806    0.9266 C   0  0  0  0  0  0  0  0  0  0  0  0
    0.6571    0.0418   -0.1374 C   0  0  0  0  0  0  0  0  0  0  0  0
   -3.0172   -0.5682   -0.9940 C   0  0  0  0  0  0  0  0  0  0  0  0
   -1.4222    1.2862    0.3903 C   0  0  0  0  0  0  0  0  0  0  0  0
    2.6979   -1.0863    0.5616 C   0  0  0  0  0  0  0  0  0  0  0  0
    1.4649    1.0417   -0.7186 C   0  0  0  0  0  0  0  0  0  0  0  0
   -3.5659    0.5373   -0.3814 C   0  0  0  0  0  0  0  0  0  0  0  0
   -2.7893    1.4392    0.2957 C   0  0  0  0  0  0  0  0  0  0  0  0
    3.4744   -0.0859   -0.0185 C   0  0  0  0  0  0  0  0  0  0  0  0
    2.8572    0.9793   -0.6598 C   0  0  0  0  0  0  0  0  0  0  0  0
   -4.8487    2.0883    0.4080 C   0  0  0  0  0  0  0  0  0  0  0  0
   -0.5567    1.9493    2.5037 C   0  0  0  0  0  0  0  0  0  0  0  0
    5.4663    0.4423    1.1686 C   0  0  0  0  0  0  0  0  0  0  0  0
    3.4348    3.2845   -0.7510 C   0  0  0  0  0  0  0  0  0  0  0  0
   -0.8363   -4.1115   -1.4412 H   0  0  0  0  0  0  0  0  0  0  0  0
    1.1894   -3.3593   -0.5407 H   0  0  0  0  0  0  0  0  0  0  0  0
   -1.6967   -2.2436   -2.4464 H   0  0  0  0  0  0  0  0  0  0  0  0
   -0.0825   -1.7787   -2.0408 H   0  0  0  0  0  0  0  0  0  0  0  0
    1.0852   -2.5059    2.0240 H   0  0  0  0  0  0  0  0  0  0  0  0
   -0.4382   -1.8353    1.5491 H   0  0  0  0  0  0  0  0  0  0  0  0
   -2.3997   -2.8982    0.8809 H   0  0  0  0  0  0  0  0  0  0  0  0
   -3.1058   -3.5454   -0.6138 H   0  0  0  0  0  0  0  0  0  0  0  0
   -2.2235   -4.6072    0.4664 H   0  0  0  0  0  0  0  0  0  0  0  0
    1.4312   -4.7975    1.3661 H   0  0  0  0  0  0  0  0  0  0  0  0
   -0.2930   -4.7294    1.7435 H   0  0  0  0  0  0  0  0  0  0  0  0
    0.2671   -5.5331    0.2601 H   0  0  0  0  0  0  0  0  0  0  0  0
   -3.6555   -1.2678   -1.5251 H   0  0  0  0  0  0  0  0  0  0  0  0
    3.1911   -1.9225    1.0538 H   0  0  0  0  0  0  0  0  0  0  0  0
   -5.2618    2.9009   -0.2005 H   0  0  0  0  0  0  0  0  0  0  0  0
   -5.4758    1.9603    1.2977 H   0  0  0  0  0  0  0  0  0  0  0  0
    0.0043    1.8525   -1.6965 H   0  0  0  0  0  0  0  0  0  0  0  0
   -0.0977    0.9719    2.6811 H   0  0  0  0  0  0  0  0  0  0  0  0
   -1.5263    2.0038    3.0084 H   0  0  0  0  0  0  0  0  0  0  0  0
    0.0966    2.7212    2.9196 H   0  0  0  0  0  0  0  0  0  0  0  0
    6.5458    0.2966    1.0729 H   0  0  0  0  0  0  0  0  0  0  0  0
    5.1311   -0.0260    2.0995 H   0  0  0  0  0  0  0  0  0  0  0  0
    5.2592    1.5166    1.1928 H   0  0  0  0  0  0  0  0  0  0  0  0
    3.0673    3.3035    0.2812 H   0  0  0  0  0  0  0  0  0  0  0  0
    2.7549    3.8355   -1.4069 H   0  0  0  0  0  0  0  0  0  0  0  0
    4.4075    3.7848   -0.7752 H   0  0  0  0  0  0  0  0  0  0  0  0
  1 21  1  0  0  0  0
  1 25  1  0  0  0  0
  2 22  1  0  0  0  0
  2 25  1  0  0  0  0
  3 18  1  0  0  0  0
  3 26  1  0  0  0  0
  4 20  1  0  0  0  0
  4 45  1  0  0  0  0
  5 23  1  0  0  0  0
  5 27  1  0  0  0  0
  6 24  1  0  0  0  0
  6 28  1  0  0  0  0
  7  8  1  0  0  0  0
  7  9  1  0  0  0  0
  7 14  1  0  0  0  0
  7 29  1  0  0  0  0
  8 10  1  0  0  0  0
  8 15  1  0  0  0  0
  8 30  1  0  0  0  0
  9 11  1  0  0  0  0
  9 31  1  0  0  0  0
  9 32  1  0  0  0  0
 10 12  1  0  0  0  0
 10 33  1  0  0  0  0
 10 34  1  0  0  0  0
 11 13  1  0  0  0  0
 11 17  2  0  0  0  0
 12 16  1  0  0  0  0
 12 19  2  0  0  0  0
 13 16  1  0  0  0  0
 13 18  2  0  0  0  0
 14 35  1  0  0  0  0
 14 36  1  0  0  0  0
 14 37  1  0  0  0  0
 15 38  1  0  0  0  0
 15 39  1  0  0  0  0
 15 40  1  0  0  0  0
 16 20  2  0  0  0  0
 17 21  1  0  0  0  0
 17 41  1  0  0  0  0
 18 22  1  0  0  0  0
 19 23  1  0  0  0  0
 19 42  1  0  0  0  0
 20 24  1  0  0  0  0
 21 22  2  0  0  0  0
 23 24  2  0  0  0  0
 25 43  1  0  0  0  0
 25 44  1  0  0  0  0
 26 46  1  0  0  0  0
 26 47  1  0  0  0  0
 26 48  1  0  0  0  0
 27 49  1  0  0  0  0
 27 50  1  0  0  0  0
 27 51  1  0  0  0  0
 28 52  1  0  0  0  0
 28 53  1  0  0  0  0
 28 54  1  0  0  0  0
M  END
> <PUBCHEM_COMPOUND_CID>
128150

> <PUBCHEM_CONFORMER_RMSD>
0.8

> <PUBCHEM_CONFORMER_DIVERSEORDER>
2
1
4
3

> <PUBCHEM_MMFF94_PARTIAL_CHARGES>
25
1 -0.36
10 0.14
11 -0.14
12 -0.14
17 -0.15
18 0.08
19 -0.15
2 -0.36
20 0.08
21 0.08
22 0.08
23 0.08
24 0.08
25 0.56
26 0.28
27 0.28
28 0.28
3 -0.36
4 -0.53
41 0.15
42 0.15
45 0.45
5 -0.36
6 -0.36
9 0.14

> <PUBCHEM_EFFECTIVE_ROTOR_COUNT>
4.4

> <PUBCHEM_PHARMACOPHORE_FEATURES>
9
1 1 acceptor
1 2 acceptor
1 3 acceptor
1 4 donor
1 5 acceptor
1 6 acceptor
5 1 2 21 22 25 rings
6 11 13 17 18 21 22 rings
6 12 16 19 20 23 24 rings

> <PUBCHEM_HEAVY_ATOM_COUNT>
28

> <PUBCHEM_ATOM_DEF_STEREO_COUNT>
2

> <PUBCHEM_ATOM_UDEF_STEREO_COUNT>
0

> <PUBCHEM_BOND_DEF_STEREO_COUNT>
0

> <PUBCHEM_BOND_UDEF_STEREO_COUNT>
0

> <PUBCHEM_ISOTOPIC_ATOM_COUNT>
0

> <PUBCHEM_COMPONENT_COUNT>
1

> <PUBCHEM_CACTVS_TAUTO_COUNT>
9

> <PUBCHEM_CONFORMER_ID>
0001F49600000002

> <PUBCHEM_MMFF94_ENERGY>
126.6571

> <PUBCHEM_FEATURE_SELFOVERLAP>
45.831

> <PUBCHEM_SHAPE_FINGERPRINT>
10090160 65 18337952286225479393
10382601 240 18122067502917206807
10493431 412 18410851040675600370
1100329 8 18410007767223958776
11578080 2 16770702037866619522
12236239 1 18412259502127961244
12422481 6 17756684366095934002
12592029 89 18263934250027990633
12788726 201 18050573137926615822
13140716 1 18335700563341286890
133893 2 17690028659494243065
13540713 5 17897161549885291596
13583140 156 17240477013881528427
138480 1 17616814327742913599
14787075 74 17988066838316728905
14790565 3 18410577270918120325
14955137 171 18190183373913947170
16945 1 18189326879893344967
17138139 8 17985236760407520503
18681886 176 18411133602690474488
19319366 153 18412819171259209319
19591789 44 18267024054144262571
20600515 1 18342458162133360796
20642791 105 18337099176623776075
20715895 44 17188124597277135305
20739085 24 17976541606989277546
21421861 104 17623303675903901857
23419403 2 16692750060792366720
23557571 272 17846497088847980656
23558518 356 17826516853584066770
23559900 14 17775016665416392668
23598288 3 18127410274940794486
25147074 1 17896881152929632476
3380486 145 17109330832107864138
350125 39 18263362667285581191
394222 165 18334859372706191227
404807 14 15475387872569058134
4340502 62 17968388849219187889
469060 322 17321844387509736136
474 4 18335141955594617992
484989 97 18120079835735988831
59755656 520 18408035200651607802
7226269 152 18131628985108141576
8272917 22 18192436256122213597

> <PUBCHEM_SHAPE_MULTIPOLES>
541.01
7.93
4.7
1.41
2.93
4.63
-0.38
-6.04
-0.14
-1.19
-0.71
0.15
-0.43
-1.71

> <PUBCHEM_SHAPE_SELFOVERLAP>
1181.265

> <PUBCHEM_SHAPE_VOLUME>
294.4

> <PUBCHEM_COORDINATE_TYPE>
2
5
10

$$$$
