3001686
  -OEChem-12232402263D

 56 58  0     1  0  0  0  0  0999 V2000
    0.8186   -1.8441   -1.4374 O   0  0  0  0  0  0  0  0  0  0  0  0
   -0.8632   -2.1153    0.9972 O   0  0  0  0  0  0  0  0  0  0  0  0
    3.5225   -1.9278   -1.1601 O   0  0  0  0  0  0  0  0  0  0  0  0
   -3.5637   -2.2793    0.7188 O   0  0  0  0  0  0  0  0  0  0  0  0
    4.8218   -0.0546    0.4049 O   0  0  0  0  0  0  0  0  0  0  0  0
   -4.9731   -0.2111   -0.4587 O   0  0  0  0  0  0  0  0  0  0  0  0
    0.3898    3.4652    0.7764 C   0  0  1  0  0  0  0  0  0  0  0  0
   -0.8684    3.4545   -0.1415 C   0  0  2  0  0  0  0  0  0  0  0  0
    0.6125    2.1435    1.5541 C   0  0  0  0  0  0  0  0  0  0  0  0
   -0.8828    2.3469   -1.2145 C   0  0  0  0  0  0  0  0  0  0  0  0
    1.3301    1.0301    0.8167 C   0  0  0  0  0  0  0  0  0  0  0  0
   -1.5404    1.0809   -0.7058 C   0  0  0  0  0  0  0  0  0  0  0  0
    1.6632    3.9652    0.0812 C   0  0  0  0  0  0  0  0  0  0  0  0
   -1.0871    4.8191   -0.8127 C   0  0  0  0  0  0  0  0  0  0  0  0
    0.6563    0.0658    0.0353 C   0  0  0  0  0  0  0  0  0  0  0  0
   -0.8106    0.0338   -0.1067 C   0  0  0  0  0  0  0  0  0  0  0  0
    2.7337    0.9593    0.9307 C   0  0  0  0  0  0  0  0  0  0  0  0
   -2.9417    0.9771   -0.8109 C   0  0  0  0  0  0  0  0  0  0  0  0
    1.4209   -0.9218   -0.6222 C   0  0  0  0  0  0  0  0  0  0  0  0
   -1.5182   -1.0925    0.3633 C   0  0  0  0  0  0  0  0  0  0  0  0
    2.8097   -0.9668   -0.5068 C   0  0  0  0  0  0  0  0  0  0  0  0
   -2.9056   -1.1821    0.2476 C   0  0  0  0  0  0  0  0  0  0  0  0
    3.4667   -0.0271    0.2741 C   0  0  0  0  0  0  0  0  0  0  0  0
   -3.6181   -0.1460   -0.3404 C   0  0  0  0  0  0  0  0  0  0  0  0
    0.9714   -3.2122   -1.0785 C   0  0  0  0  0  0  0  0  0  0  0  0
   -0.7351   -2.0151    2.4105 C   0  0  0  0  0  0  0  0  0  0  0  0
    4.3081   -2.8078   -0.3592 C   0  0  0  0  0  0  0  0  0  0  0  0
   -3.2174   -3.5375    0.1445 C   0  0  0  0  0  0  0  0  0  0  0  0
    0.1675    4.2135    1.5526 H   0  0  0  0  0  0  0  0  0  0  0  0
   -1.7336    3.3128    0.5225 H   0  0  0  0  0  0  0  0  0  0  0  0
   -0.3403    1.7765    1.9561 H   0  0  0  0  0  0  0  0  0  0  0  0
    1.2011    2.3791    2.4527 H   0  0  0  0  0  0  0  0  0  0  0  0
    0.1185    2.1439   -1.6086 H   0  0  0  0  0  0  0  0  0  0  0  0
   -1.4549    2.6787   -2.0923 H   0  0  0  0  0  0  0  0  0  0  0  0
    1.9268    3.3553   -0.7876 H   0  0  0  0  0  0  0  0  0  0  0  0
    1.5490    4.9991   -0.2595 H   0  0  0  0  0  0  0  0  0  0  0  0
    2.5100    3.9608    0.7757 H   0  0  0  0  0  0  0  0  0  0  0  0
   -0.3452    5.0107   -1.5947 H   0  0  0  0  0  0  0  0  0  0  0  0
   -2.0769    4.8596   -1.2812 H   0  0  0  0  0  0  0  0  0  0  0  0
   -1.0373    5.6306   -0.0792 H   0  0  0  0  0  0  0  0  0  0  0  0
    3.2568    1.6925    1.5421 H   0  0  0  0  0  0  0  0  0  0  0  0
   -3.5106    1.7878   -1.2625 H   0  0  0  0  0  0  0  0  0  0  0  0
    5.1002    0.6746    0.9852 H   0  0  0  0  0  0  0  0  0  0  0  0
   -5.2729   -1.0562   -0.0809 H   0  0  0  0  0  0  0  0  0  0  0  0
    1.2830   -3.3534   -0.0377 H   0  0  0  0  0  0  0  0  0  0  0  0
    1.6904   -3.6883   -1.7514 H   0  0  0  0  0  0  0  0  0  0  0  0
    0.0070   -3.7101   -1.2178 H   0  0  0  0  0  0  0  0  0  0  0  0
   -0.1348   -2.8599    2.7593 H   0  0  0  0  0  0  0  0  0  0  0  0
   -1.7170   -2.0657    2.8913 H   0  0  0  0  0  0  0  0  0  0  0  0
   -0.2284   -1.0884    2.6970 H   0  0  0  0  0  0  0  0  0  0  0  0
    4.3104   -3.7902   -0.8404 H   0  0  0  0  0  0  0  0  0  0  0  0
    3.9012   -2.9237    0.6515 H   0  0  0  0  0  0  0  0  0  0  0  0
    5.3411   -2.4518   -0.3150 H   0  0  0  0  0  0  0  0  0  0  0  0
   -4.1276   -4.1414    0.0836 H   0  0  0  0  0  0  0  0  0  0  0  0
   -2.5073   -4.0619    0.7899 H   0  0  0  0  0  0  0  0  0  0  0  0
   -2.8083   -3.4348   -0.8668 H   0  0  0  0  0  0  0  0  0  0  0  0
  1 19  1  0  0  0  0
  1 25  1  0  0  0  0
  2 20  1  0  0  0  0
  2 26  1  0  0  0  0
  3 21  1  0  0  0  0
  3 27  1  0  0  0  0
  4 22  1  0  0  0  0
  4 28  1  0  0  0  0
  5 23  1  0  0  0  0
  5 43  1  0  0  0  0
  6 24  1  0  0  0  0
  6 44  1  0  0  0  0
  7  8  1  0  0  0  0
  7  9  1  0  0  0  0
  7 13  1  0  0  0  0
  7 29  1  0  0  0  0
  8 10  1  0  0  0  0
  8 14  1  0  0  0  0
  8 30  1  0  0  0  0
  9 11  1  0  0  0  0
  9 31  1  0  0  0  0
  9 32  1  0  0  0  0
 10 12  1  0  0  0  0
 10 33  1  0  0  0  0
 10 34  1  0  0  0  0
 11 15  1  0  0  0  0
 11 17  2  0  0  0  0
 12 16  1  0  0  0  0
 12 18  2  0  0  0  0
 13 35  1  0  0  0  0
 13 36  1  0  0  0  0
 13 37  1  0  0  0  0
 14 38  1  0  0  0  0
 14 39  1  0  0  0  0
 14 40  1  0  0  0  0
 15 16  1  0  0  0  0
 15 19  2  0  0  0  0
 16 20  2  0  0  0  0
 17 23  1  0  0  0  0
 17 41  1  0  0  0  0
 18 24  1  0  0  0  0
 18 42  1  0  0  0  0
 19 21  1  0  0  0  0
 20 22  1  0  0  0  0
 21 23  2  0  0  0  0
 22 24  2  0  0  0  0
 25 45  1  0  0  0  0
 25 46  1  0  0  0  0
 25 47  1  0  0  0  0
 26 48  1  0  0  0  0
 26 49  1  0  0  0  0
 26 50  1  0  0  0  0
 27 51  1  0  0  0  0
 27 52  1  0  0  0  0
 27 53  1  0  0  0  0
 28 54  1  0  0  0  0
 28 55  1  0  0  0  0
 28 56  1  0  0  0  0
M  END
> <PUBCHEM_COMPOUND_CID>
3001686

> <PUBCHEM_CONFORMER_RMSD>
0.8

> <PUBCHEM_CONFORMER_DIVERSEORDER>
4
3
2
1
5
6

> <PUBCHEM_MMFF94_PARTIAL_CHARGES>
26
1 -0.36
10 0.14
11 -0.14
12 -0.14
17 -0.15
18 -0.15
19 0.08
2 -0.36
20 0.08
21 0.08
22 0.08
23 0.08
24 0.08
25 0.28
26 0.28
27 0.28
28 0.28
3 -0.36
4 -0.36
41 0.15
42 0.15
43 0.45
44 0.45
5 -0.53
6 -0.53
9 0.14

> <PUBCHEM_EFFECTIVE_ROTOR_COUNT>
4.8

> <PUBCHEM_PHARMACOPHORE_FEATURES>
8
1 1 acceptor
1 2 acceptor
1 3 acceptor
1 4 acceptor
1 5 donor
1 6 donor
6 11 15 17 19 21 23 rings
6 12 16 18 20 22 24 rings

> <PUBCHEM_HEAVY_ATOM_COUNT>
28

> <PUBCHEM_ATOM_DEF_STEREO_COUNT>
2

> <PUBCHEM_ATOM_UDEF_STEREO_COUNT>
0

> <PUBCHEM_BOND_DEF_STEREO_COUNT>
0

> <PUBCHEM_BOND_UDEF_STEREO_COUNT>
0

> <PUBCHEM_ISOTOPIC_ATOM_COUNT>
0

> <PUBCHEM_COMPONENT_COUNT>
1

> <PUBCHEM_CACTVS_TAUTO_COUNT>
44

> <PUBCHEM_CONFORMER_ID>
002DCD5600000004

> <PUBCHEM_MMFF94_ENERGY>
136.7321

> <PUBCHEM_FEATURE_SELFOVERLAP>
40.61

> <PUBCHEM_SHAPE_FINGERPRINT>
10165383 225 17263010654384783961
10906281 52 18338533987621402381
1100329 8 18267591204391641825
11578080 2 14348372248822643588
12035758 1 18339355378699455209
12035759 4 14450796764659986975
12236239 1 15791726395209819395
12403259 226 18413386536038149262
12422481 6 17907269385654381552
12788726 201 18261112924808534912
13140716 1 18338229478988284545
138480 1 14880034022348420892
140371 6 18410857663547332496
14790565 3 17545040862993090932
14866123 147 17765157168007618763
15324884 4 18270667774841911589
16945 1 18338518508564061804
17357779 13 18270386222614364341
19591789 44 17691410703030618745
20510252 161 18265048046443037160
20600515 1 17749667492908334932
20905425 154 18194388996819941263
22907989 373 17976577990142266430
23419403 2 17272543093726956744
23558518 356 18119536435945670892
23559900 14 18338229470334656600
23566358 2 17550386241591237237
2748010 2 18195506289660185285
3380486 145 18337968856014596651
350125 39 17406268210632205024
469060 322 17388565725696794685
6287921 2 17982176922257343043
7364860 26 17905330980576019249
81228 2 18193860153143892769
9709674 26 17983297019747927638

> <PUBCHEM_SHAPE_MULTIPOLES>
541.01
6.56
5.47
1.35
1.26
4.29
0.46
-4.95
-0.75
-0.89
-0.42
0.06
-0.34
1.8

> <PUBCHEM_SHAPE_SELFOVERLAP>
1162.324

> <PUBCHEM_SHAPE_VOLUME>
298.8

> <PUBCHEM_COORDINATE_TYPE>
2
5
10

$$$$
