56670628
  -OEChem-12232402243D

 54 58  0     1  0  0  0  0  0999 V2000
    1.4114   -2.3491   -2.5979 O   0  0  0  0  0  0  0  0  0  0  0  0
   -1.4299   -2.3098    2.6010 O   0  0  0  0  0  0  0  0  0  0  0  0
    4.8512    0.5960   -0.2574 O   0  0  0  0  0  0  0  0  0  0  0  0
   -4.8498    0.5963    0.2578 O   0  0  0  0  0  0  0  0  0  0  0  0
    3.6459    2.3038    0.9383 O   0  0  0  0  0  0  0  0  0  0  0  0
   -3.6452    2.3008   -0.9434 O   0  0  0  0  0  0  0  0  0  0  0  0
    0.8204    2.3396    1.1806 O   0  0  0  0  0  0  0  0  0  0  0  0
   -0.8200    2.3353   -1.1879 O   0  0  0  0  0  0  0  0  0  0  0  0
    0.5940   -3.2104   -0.5016 C   0  0  1  0  0  0  0  0  0  0  0  0
   -0.5915   -3.2097    0.5095 C   0  0  1  0  0  0  0  0  0  0  0  0
    0.7312   -1.9503   -1.3961 C   0  0  1  0  0  0  0  0  0  0  0  0
   -0.7279   -1.9461    1.4017 C   0  0  1  0  0  0  0  0  0  0  0  0
    1.4484   -0.7645   -0.7597 C   0  0  0  0  0  0  0  0  0  0  0  0
   -1.4465   -0.7639    0.7619 C   0  0  0  0  0  0  0  0  0  0  0  0
    0.7356    0.2511   -0.0586 C   0  0  0  0  0  0  0  0  0  0  0  0
   -0.7345    0.2505    0.0575 C   0  0  0  0  0  0  0  0  0  0  0  0
    1.9019   -3.5932    0.2127 C   0  0  0  0  0  0  0  0  0  0  0  0
   -1.9002   -3.5937   -0.2030 C   0  0  0  0  0  0  0  0  0  0  0  0
    2.8566   -0.6778   -0.8534 C   0  0  0  0  0  0  0  0  0  0  0  0
   -2.8547   -0.6759    0.8565 C   0  0  0  0  0  0  0  0  0  0  0  0
    1.4506    1.3155    0.5379 C   0  0  0  0  0  0  0  0  0  0  0  0
   -1.4499    1.3133   -0.5418 C   0  0  0  0  0  0  0  0  0  0  0  0
    3.5078    0.3808   -0.2574 C   0  0  0  0  0  0  0  0  0  0  0  0
   -3.5063    0.3812    0.2576 C   0  0  0  0  0  0  0  0  0  0  0  0
    2.8232    1.3512    0.4226 C   0  0  0  0  0  0  0  0  0  0  0  0
   -2.8222    1.3495   -0.4257 C   0  0  0  0  0  0  0  0  0  0  0  0
    4.9321    1.8199    0.5011 C   0  0  0  0  0  0  0  0  0  0  0  0
   -4.9312    1.8172   -0.5055 C   0  0  0  0  0  0  0  0  0  0  0  0
    0.5783    2.1755    2.5760 C   0  0  0  0  0  0  0  0  0  0  0  0
   -0.5789    2.1670   -2.5831 C   0  0  0  0  0  0  0  0  0  0  0  0
    0.4092   -4.0557   -1.1818 H   0  0  0  0  0  0  0  0  0  0  0  0
   -0.4078   -4.0512    1.1945 H   0  0  0  0  0  0  0  0  0  0  0  0
   -0.2555   -1.6297   -1.7458 H   0  0  0  0  0  0  0  0  0  0  0  0
    0.2579   -1.6273    1.7555 H   0  0  0  0  0  0  0  0  0  0  0  0
    1.8031   -4.5736    0.6925 H   0  0  0  0  0  0  0  0  0  0  0  0
    2.7313   -3.6686   -0.4978 H   0  0  0  0  0  0  0  0  0  0  0  0
    2.1717   -2.8751    0.9928 H   0  0  0  0  0  0  0  0  0  0  0  0
   -1.8021   -4.5755   -0.6799 H   0  0  0  0  0  0  0  0  0  0  0  0
   -2.7291   -3.6666    0.5083 H   0  0  0  0  0  0  0  0  0  0  0  0
   -2.1699   -2.8776   -0.9850 H   0  0  0  0  0  0  0  0  0  0  0  0
    3.4335   -1.4331   -1.3784 H   0  0  0  0  0  0  0  0  0  0  0  0
   -3.4334   -1.4293    1.3824 H   0  0  0  0  0  0  0  0  0  0  0  0
    0.8497   -3.0000   -3.0525 H   0  0  0  0  0  0  0  0  0  0  0  0
   -0.8975   -2.9809    3.0611 H   0  0  0  0  0  0  0  0  0  0  0  0
    5.5601    1.6460    1.3824 H   0  0  0  0  0  0  0  0  0  0  0  0
    5.4037    2.5888   -0.1217 H   0  0  0  0  0  0  0  0  0  0  0  0
   -5.5582    1.6393   -1.3868 H   0  0  0  0  0  0  0  0  0  0  0  0
   -5.4042    2.5879    0.1138 H   0  0  0  0  0  0  0  0  0  0  0  0
    0.0144    3.0432    2.9292 H   0  0  0  0  0  0  0  0  0  0  0  0
    1.5252    2.1283    3.1229 H   0  0  0  0  0  0  0  0  0  0  0  0
   -0.0103    1.2742    2.7721 H   0  0  0  0  0  0  0  0  0  0  0  0
   -0.0149    3.0335   -2.9392 H   0  0  0  0  0  0  0  0  0  0  0  0
   -1.5262    2.1186   -3.1292 H   0  0  0  0  0  0  0  0  0  0  0  0
    0.0092    1.2649   -2.7769 H   0  0  0  0  0  0  0  0  0  0  0  0
  1 11  1  0  0  0  0
  1 43  1  0  0  0  0
  2 12  1  0  0  0  0
  2 44  1  0  0  0  0
  3 23  1  0  0  0  0
  3 27  1  0  0  0  0
  4 24  1  0  0  0  0
  4 28  1  0  0  0  0
  5 25  1  0  0  0  0
  5 27  1  0  0  0  0
  6 26  1  0  0  0  0
  6 28  1  0  0  0  0
  7 21  1  0  0  0  0
  7 29  1  0  0  0  0
  8 22  1  0  0  0  0
  8 30  1  0  0  0  0
  9 10  1  0  0  0  0
  9 11  1  0  0  0  0
  9 17  1  0  0  0  0
  9 31  1  0  0  0  0
 10 12  1  0  0  0  0
 10 18  1  0  0  0  0
 10 32  1  0  0  0  0
 11 13  1  0  0  0  0
 11 33  1  0  0  0  0
 12 14  1  0  0  0  0
 12 34  1  0  0  0  0
 13 15  1  0  0  0  0
 13 19  2  0  0  0  0
 14 16  1  0  0  0  0
 14 20  2  0  0  0  0
 15 16  1  0  0  0  0
 15 21  2  0  0  0  0
 16 22  2  0  0  0  0
 17 35  1  0  0  0  0
 17 36  1  0  0  0  0
 17 37  1  0  0  0  0
 18 38  1  0  0  0  0
 18 39  1  0  0  0  0
 18 40  1  0  0  0  0
 19 23  1  0  0  0  0
 19 41  1  0  0  0  0
 20 24  1  0  0  0  0
 20 42  1  0  0  0  0
 21 25  1  0  0  0  0
 22 26  1  0  0  0  0
 23 25  2  0  0  0  0
 24 26  2  0  0  0  0
 27 45  1  0  0  0  0
 27 46  1  0  0  0  0
 28 47  1  0  0  0  0
 28 48  1  0  0  0  0
 29 49  1  0  0  0  0
 29 50  1  0  0  0  0
 29 51  1  0  0  0  0
 30 52  1  0  0  0  0
 30 53  1  0  0  0  0
 30 54  1  0  0  0  0
M  END
> <PUBCHEM_COMPOUND_CID>
56670628

> <PUBCHEM_CONFORMER_RMSD>
0.8

> <PUBCHEM_CONFORMER_DIVERSEORDER>
1
6
2
3
5
4

> <PUBCHEM_MMFF94_PARTIAL_CHARGES>
28
1 -0.68
11 0.42
12 0.42
13 -0.14
14 -0.14
19 -0.15
2 -0.68
20 -0.15
21 0.08
22 0.08
23 0.08
24 0.08
25 0.08
26 0.08
27 0.56
28 0.56
29 0.28
3 -0.36
30 0.28
4 -0.36
41 0.15
42 0.15
43 0.4
44 0.4
5 -0.36
6 -0.36
7 -0.36
8 -0.36

> <PUBCHEM_EFFECTIVE_ROTOR_COUNT>
4

> <PUBCHEM_PHARMACOPHORE_FEATURES>
14
1 1 acceptor
1 1 donor
1 2 acceptor
1 2 donor
1 3 acceptor
1 4 acceptor
1 5 acceptor
1 6 acceptor
1 7 acceptor
1 8 acceptor
5 3 5 23 25 27 rings
5 4 6 24 26 28 rings
6 13 15 19 21 23 25 rings
6 14 16 20 22 24 26 rings

> <PUBCHEM_HEAVY_ATOM_COUNT>
30

> <PUBCHEM_ATOM_DEF_STEREO_COUNT>
0

> <PUBCHEM_ATOM_UDEF_STEREO_COUNT>
4

> <PUBCHEM_BOND_DEF_STEREO_COUNT>
0

> <PUBCHEM_BOND_UDEF_STEREO_COUNT>
0

> <PUBCHEM_ISOTOPIC_ATOM_COUNT>
0

> <PUBCHEM_COMPONENT_COUNT>
1

> <PUBCHEM_CACTVS_TAUTO_COUNT>
1

> <PUBCHEM_CONFORMER_ID>
0360B9A400000001

> <PUBCHEM_MMFF94_ENERGY>
125.5557

> <PUBCHEM_FEATURE_SELFOVERLAP>
71.362

> <PUBCHEM_SHAPE_FINGERPRINT>
10165383 225 18410577283692200405
10675989 125 18051411760456430577
107951 10 17894914044189810770
1100329 8 18338792291798573706
11370993 70 18410854364917133377
11421498 54 16200437931655832147
12035758 1 18338241577800160817
12035759 4 13867831280150001988
12156800 1 17483631884282156339
12236239 1 15719111361661822721
12422481 6 17980788217750074755
12730499 353 18339366271359145873
12788726 201 17833532867071649578
13004483 165 17405413889812989082
13140716 1 17903091262895513835
13402501 40 18410862061492947713
13726171 33 17245878957548818237
13911987 19 17916877927559104908
14787075 74 18201997759229218173
15324884 4 18264795266185100694
16945 1 18410569591400043747
20600515 1 17821734974029881709
20691752 17 17387988477838851853
20905425 154 17756144488675320783
21033648 29 18271238447432057008
22182313 1 18263386757878697667
23419403 2 17910435815374046439
23559900 14 18115599140683170542
238 59 18049130334068425637
2748010 2 18190768386966642235
3298306 158 18412824668642969638
3380486 145 18198646490552976235
3383291 50 18198336261646418410
35225 105 17684606121512224938
3524813 1 18410580577926269998
4340502 62 18341617005757022157
5265222 85 18189630496265054798
57527585 103 16168117572651970099
81228 2 17756403208587989689

> <PUBCHEM_SHAPE_MULTIPOLES>
570.43
7.12
4.32
1.86
0.01
3.55
0
-5.48
0
0.01
0.01
-0.01
-0.22
1.93

> <PUBCHEM_SHAPE_SELFOVERLAP>
1268.889

> <PUBCHEM_SHAPE_VOLUME>
303.8

> <PUBCHEM_COORDINATE_TYPE>
2
5
10

$$$$
