155256
  -OEChem-12232402203D

 62 64  0     1  0  0  0  0  0999 V2000
   -0.7676   -1.9844   -1.3593 O   0  0  0  0  0  0  0  0  0  0  0  0
    0.9604   -2.1524    1.0533 O   0  0  0  0  0  0  0  0  0  0  0  0
   -4.8619   -0.4909    0.5457 O   0  0  0  0  0  0  0  0  0  0  0  0
    4.9081    0.0434   -0.4403 O   0  0  0  0  0  0  0  0  0  0  0  0
   -3.4554   -2.2578   -1.0503 O   0  0  0  0  0  0  0  0  0  0  0  0
    3.6628   -2.1245    0.7410 O   0  0  0  0  0  0  0  0  0  0  0  0
   -0.6821    3.3276    0.8871 C   0  0  2  0  0  0  0  0  0  0  0  0
    0.5618    3.4105   -0.0465 C   0  0  1  0  0  0  0  0  0  0  0  0
   -0.8019    1.9887    1.6582 C   0  0  0  0  0  0  0  0  0  0  0  0
    0.6396    2.3134   -1.1276 C   0  0  0  0  0  0  0  0  0  0  0  0
   -1.4494    0.8324    0.9219 C   0  0  0  0  0  0  0  0  0  0  0  0
    1.3906    1.0935   -0.6361 C   0  0  0  0  0  0  0  0  0  0  0  0
   -1.9962    3.7415    0.2113 C   0  0  0  0  0  0  0  0  0  0  0  0
    0.6763    4.7913   -0.7103 C   0  0  0  0  0  0  0  0  0  0  0  0
   -0.7201   -0.0773    0.1252 C   0  0  0  0  0  0  0  0  0  0  0  0
    0.7436   -0.0058   -0.0353 C   0  0  0  0  0  0  0  0  0  0  0  0
   -2.8430    0.6629    1.0528 C   0  0  0  0  0  0  0  0  0  0  0  0
    2.7941    1.0886   -0.7596 C   0  0  0  0  0  0  0  0  0  0  0  0
   -1.4223   -1.1116   -0.5303 C   0  0  0  0  0  0  0  0  0  0  0  0
    1.5342   -1.0824    0.4183 C   0  0  0  0  0  0  0  0  0  0  0  0
   -3.5138   -0.3679    0.3979 C   0  0  0  0  0  0  0  0  0  0  0  0
    3.5535    0.0129   -0.3052 C   0  0  0  0  0  0  0  0  0  0  0  0
   -2.8029   -1.2542   -0.3983 C   0  0  0  0  0  0  0  0  0  0  0  0
    2.9229   -1.0739    0.2850 C   0  0  0  0  0  0  0  0  0  0  0  0
   -0.6799   -1.6200   -2.7316 C   0  0  0  0  0  0  0  0  0  0  0  0
    0.8440   -2.0696    2.4688 C   0  0  0  0  0  0  0  0  0  0  0  0
   -5.6831    0.2085   -0.3878 C   0  0  0  0  0  0  0  0  0  0  0  0
    5.4526   -0.5008   -1.6412 C   0  0  0  0  0  0  0  0  0  0  0  0
   -3.5936   -3.4967   -0.3582 C   0  0  0  0  0  0  0  0  0  0  0  0
    4.6287   -1.8452    1.7516 C   0  0  0  0  0  0  0  0  0  0  0  0
   -0.5027    4.0848    1.6658 H   0  0  0  0  0  0  0  0  0  0  0  0
    1.4433    3.3252    0.6057 H   0  0  0  0  0  0  0  0  0  0  0  0
   -1.3942    2.1770    2.5655 H   0  0  0  0  0  0  0  0  0  0  0  0
    0.1793    1.6868    2.0458 H   0  0  0  0  0  0  0  0  0  0  0  0
    1.1755    2.6899   -2.0102 H   0  0  0  0  0  0  0  0  0  0  0  0
   -0.3502    2.0432   -1.5104 H   0  0  0  0  0  0  0  0  0  0  0  0
   -1.9590    4.7829   -0.1234 H   0  0  0  0  0  0  0  0  0  0  0  0
   -2.2277    3.1200   -0.6585 H   0  0  0  0  0  0  0  0  0  0  0  0
   -2.8317    3.6733    0.9161 H   0  0  0  0  0  0  0  0  0  0  0  0
    1.6548    4.9038   -1.1907 H   0  0  0  0  0  0  0  0  0  0  0  0
   -0.0871    4.9358   -1.4816 H   0  0  0  0  0  0  0  0  0  0  0  0
    0.5798    5.5927    0.0296 H   0  0  0  0  0  0  0  0  0  0  0  0
   -3.4142    1.3496    1.6749 H   0  0  0  0  0  0  0  0  0  0  0  0
    3.2985    1.9404   -1.2121 H   0  0  0  0  0  0  0  0  0  0  0  0
   -0.0624   -2.3630   -3.2439 H   0  0  0  0  0  0  0  0  0  0  0  0
   -0.2115   -0.6381   -2.8517 H   0  0  0  0  0  0  0  0  0  0  0  0
   -1.6725   -1.6168   -3.1926 H   0  0  0  0  0  0  0  0  0  0  0  0
    1.8304   -2.1137    2.9397 H   0  0  0  0  0  0  0  0  0  0  0  0
    0.2580   -2.9261    2.8137 H   0  0  0  0  0  0  0  0  0  0  0  0
    0.3286   -1.1532    2.7728 H   0  0  0  0  0  0  0  0  0  0  0  0
   -5.5076    1.2869   -0.3199 H   0  0  0  0  0  0  0  0  0  0  0  0
   -6.7293    0.0081   -0.1411 H   0  0  0  0  0  0  0  0  0  0  0  0
   -5.4906   -0.1402   -1.4073 H   0  0  0  0  0  0  0  0  0  0  0  0
    5.0951    0.0586   -2.5115 H   0  0  0  0  0  0  0  0  0  0  0  0
    5.1888   -1.5586   -1.7398 H   0  0  0  0  0  0  0  0  0  0  0  0
    6.5415   -0.4151   -1.5930 H   0  0  0  0  0  0  0  0  0  0  0  0
   -4.1770   -3.3627    0.5582 H   0  0  0  0  0  0  0  0  0  0  0  0
   -2.6115   -3.9170   -0.1196 H   0  0  0  0  0  0  0  0  0  0  0  0
   -4.1237   -4.1960   -1.0105 H   0  0  0  0  0  0  0  0  0  0  0  0
    4.6776   -2.7110    2.4186 H   0  0  0  0  0  0  0  0  0  0  0  0
    4.3608   -0.9681    2.3512 H   0  0  0  0  0  0  0  0  0  0  0  0
    5.6156   -1.7108    1.3001 H   0  0  0  0  0  0  0  0  0  0  0  0
  1 19  1  0  0  0  0
  1 25  1  0  0  0  0
  2 20  1  0  0  0  0
  2 26  1  0  0  0  0
  3 21  1  0  0  0  0
  3 27  1  0  0  0  0
  4 22  1  0  0  0  0
  4 28  1  0  0  0  0
  5 23  1  0  0  0  0
  5 29  1  0  0  0  0
  6 24  1  0  0  0  0
  6 30  1  0  0  0  0
  7  8  1  0  0  0  0
  7  9  1  0  0  0  0
  7 13  1  0  0  0  0
  7 31  1  0  0  0  0
  8 10  1  0  0  0  0
  8 14  1  0  0  0  0
  8 32  1  0  0  0  0
  9 11  1  0  0  0  0
  9 33  1  0  0  0  0
  9 34  1  0  0  0  0
 10 12  1  0  0  0  0
 10 35  1  0  0  0  0
 10 36  1  0  0  0  0
 11 15  1  0  0  0  0
 11 17  2  0  0  0  0
 12 16  1  0  0  0  0
 12 18  2  0  0  0  0
 13 37  1  0  0  0  0
 13 38  1  0  0  0  0
 13 39  1  0  0  0  0
 14 40  1  0  0  0  0
 14 41  1  0  0  0  0
 14 42  1  0  0  0  0
 15 16  1  0  0  0  0
 15 19  2  0  0  0  0
 16 20  2  0  0  0  0
 17 21  1  0  0  0  0
 17 43  1  0  0  0  0
 18 22  1  0  0  0  0
 18 44  1  0  0  0  0
 19 23  1  0  0  0  0
 20 24  1  0  0  0  0
 21 23  2  0  0  0  0
 22 24  2  0  0  0  0
 25 45  1  0  0  0  0
 25 46  1  0  0  0  0
 25 47  1  0  0  0  0
 26 48  1  0  0  0  0
 26 49  1  0  0  0  0
 26 50  1  0  0  0  0
 27 51  1  0  0  0  0
 27 52  1  0  0  0  0
 27 53  1  0  0  0  0
 28 54  1  0  0  0  0
 28 55  1  0  0  0  0
 28 56  1  0  0  0  0
 29 57  1  0  0  0  0
 29 58  1  0  0  0  0
 29 59  1  0  0  0  0
 30 60  1  0  0  0  0
 30 61  1  0  0  0  0
 30 62  1  0  0  0  0
M  END
> <PUBCHEM_COMPOUND_CID>
155256

> <PUBCHEM_CONFORMER_RMSD>
0.8

> <PUBCHEM_CONFORMER_DIVERSEORDER>
3
7
2
1
6
5
4

> <PUBCHEM_MMFF94_PARTIAL_CHARGES>
26
1 -0.36
10 0.14
11 -0.14
12 -0.14
17 -0.15
18 -0.15
19 0.08
2 -0.36
20 0.08
21 0.08
22 0.08
23 0.08
24 0.08
25 0.28
26 0.28
27 0.28
28 0.28
29 0.28
3 -0.36
30 0.28
4 -0.36
43 0.15
44 0.15
5 -0.36
6 -0.36
9 0.14

> <PUBCHEM_EFFECTIVE_ROTOR_COUNT>
6.8

> <PUBCHEM_PHARMACOPHORE_FEATURES>
8
1 1 acceptor
1 2 acceptor
1 3 acceptor
1 4 acceptor
1 5 acceptor
1 6 acceptor
6 11 15 17 19 21 23 rings
6 12 16 18 20 22 24 rings

> <PUBCHEM_HEAVY_ATOM_COUNT>
30

> <PUBCHEM_ATOM_DEF_STEREO_COUNT>
2

> <PUBCHEM_ATOM_UDEF_STEREO_COUNT>
0

> <PUBCHEM_BOND_DEF_STEREO_COUNT>
0

> <PUBCHEM_BOND_UDEF_STEREO_COUNT>
0

> <PUBCHEM_ISOTOPIC_ATOM_COUNT>
0

> <PUBCHEM_COMPONENT_COUNT>
1

> <PUBCHEM_CACTVS_TAUTO_COUNT>
1

> <PUBCHEM_CONFORMER_ID>
00025E7800000003

> <PUBCHEM_MMFF94_ENERGY>
163.2359

> <PUBCHEM_FEATURE_SELFOVERLAP>
40.623

> <PUBCHEM_SHAPE_FINGERPRINT>
10369192 42 16556473141931523568
10871710 139 18263380117679929332
10906281 52 18129116554231577577
1100329 8 18339087098321180795
11578080 2 18051375643881175016
12236239 1 18411423916287958198
12422481 6 17983316832463518017
12553582 1 18411979169628317086
12741549 16 17095515227591038628
12788726 201 18336834091257825112
13004483 165 18337100172955987976
13009979 54 17844829137897561745
13140716 1 18271799163954653947
13583140 156 18113908195406464651
13692114 37 17689135834552396157
13782708 43 16558476296660037278
13965767 371 17623592855477162841
14787075 74 18187652461223350702
14955137 171 18128835181928094963
16945 1 18341620256630546824
17349148 13 17918274273224637183
18681886 176 18201152277884980239
20600515 1 17775568641495971729
20642791 35 18341618178489497924
20691752 17 17972309887787866849
21033648 29 16845573119041296531
229495 10 17387390394879311439
23366157 5 18047747393306799993
23419403 2 15116966031034847401
23557571 272 17703520891137996224
23559900 14 17703514384705524500
25147074 1 17969228824790027978
3178227 256 18410586072471369483
34934 24 18341609368936093097
3493558 16 17241326842060328973
463206 1 18335143136958557531
70251023 43 17696181883447445167
7164475 11 18266175042030640506

> <PUBCHEM_SHAPE_MULTIPOLES>
582.17
8.51
4.61
1.75
1.46
4.87
-0.06
-5.35
-0.85
-1.38
-0.08
0.74
-0.94
-1.94

> <PUBCHEM_SHAPE_SELFOVERLAP>
1236.402

> <PUBCHEM_SHAPE_VOLUME>
326.7

> <PUBCHEM_COORDINATE_TYPE>
2
5
10

$$$$
