23915
  -OEChem-12232402183D

 63 65  0     1  0  0  0  0  0999 V2000
    0.8221   -4.5018   -0.9964 O   0  0  0  0  0  0  0  0  0  0  0  0
    0.6618    2.2939    1.1548 O   0  0  0  0  0  0  0  0  0  0  0  0
   -0.9118    2.0822   -1.1776 O   0  0  0  0  0  0  0  0  0  0  0  0
    4.8690    0.6590   -0.3458 O   0  0  0  0  0  0  0  0  0  0  0  0
   -4.9062    0.1117    0.4943 O   0  0  0  0  0  0  0  0  0  0  0  0
    3.3588    2.5783    0.9541 O   0  0  0  0  0  0  0  0  0  0  0  0
   -3.6266    2.0596   -0.9976 O   0  0  0  0  0  0  0  0  0  0  0  0
    0.8527   -3.3110   -0.1811 C   0  0  2  0  0  0  0  0  0  0  0  0
   -0.4311   -3.3415    0.7088 C   0  0  1  0  0  0  0  0  0  0  0  0
    0.9337   -2.1126   -1.1615 C   0  0  0  0  0  0  0  0  0  0  0  0
   -0.6736   -2.0749    1.5677 C   0  0  0  0  0  0  0  0  0  0  0  0
    1.5145   -0.8317   -0.6021 C   0  0  0  0  0  0  0  0  0  0  0  0
   -1.3996   -0.9351    0.8825 C   0  0  0  0  0  0  0  0  0  0  0  0
    2.1108   -3.4625    0.6947 C   0  0  0  0  0  0  0  0  0  0  0  0
   -1.6883   -3.7767   -0.0666 C   0  0  0  0  0  0  0  0  0  0  0  0
    0.7319    0.1523    0.0355 C   0  0  0  0  0  0  0  0  0  0  0  0
   -0.7358    0.0687    0.1478 C   0  0  0  0  0  0  0  0  0  0  0  0
    2.9054   -0.6304   -0.7248 C   0  0  0  0  0  0  0  0  0  0  0  0
   -2.8055   -0.8890    0.9904 C   0  0  0  0  0  0  0  0  0  0  0  0
    1.3829    1.2915    0.5584 C   0  0  0  0  0  0  0  0  0  0  0  0
   -1.5144    1.0644   -0.4832 C   0  0  0  0  0  0  0  0  0  0  0  0
    3.5235    0.5052   -0.2067 C   0  0  0  0  0  0  0  0  0  0  0  0
   -3.5512    0.1072    0.3642 C   0  0  0  0  0  0  0  0  0  0  0  0
    2.7617    1.4653    0.4420 C   0  0  0  0  0  0  0  0  0  0  0  0
   -2.9049    1.0825   -0.3798 C   0  0  0  0  0  0  0  0  0  0  0  0
    0.4431    2.1793    2.5560 C   0  0  0  0  0  0  0  0  0  0  0  0
   -1.2330    2.1935   -2.5594 C   0  0  0  0  0  0  0  0  0  0  0  0
    5.5737   -0.3776   -1.0267 C   0  0  0  0  0  0  0  0  0  0  0  0
   -5.6545   -0.6107   -0.4820 C   0  0  0  0  0  0  0  0  0  0  0  0
    3.4632    3.7103    0.0935 C   0  0  0  0  0  0  0  0  0  0  0  0
   -3.8723    3.2506   -0.2535 C   0  0  0  0  0  0  0  0  0  0  0  0
   -0.2686   -4.1558    1.4320 H   0  0  0  0  0  0  0  0  0  0  0  0
   -0.0438   -1.9169   -1.6191 H   0  0  0  0  0  0  0  0  0  0  0  0
    1.5471   -2.4084   -2.0260 H   0  0  0  0  0  0  0  0  0  0  0  0
    0.2604   -1.7120    2.0108 H   0  0  0  0  0  0  0  0  0  0  0  0
   -1.2739   -2.3741    2.4393 H   0  0  0  0  0  0  0  0  0  0  0  0
    3.0089   -3.5421    0.0714 H   0  0  0  0  0  0  0  0  0  0  0  0
    2.2442   -2.6379    1.3998 H   0  0  0  0  0  0  0  0  0  0  0  0
    2.0687   -4.3942    1.2718 H   0  0  0  0  0  0  0  0  0  0  0  0
   -1.9080   -3.1120   -0.9070 H   0  0  0  0  0  0  0  0  0  0  0  0
   -1.5809   -4.7925   -0.4613 H   0  0  0  0  0  0  0  0  0  0  0  0
   -2.5613   -3.7992    0.5944 H   0  0  0  0  0  0  0  0  0  0  0  0
    0.2087   -4.3518   -1.7357 H   0  0  0  0  0  0  0  0  0  0  0  0
    3.4568   -1.4132   -1.2366 H   0  0  0  0  0  0  0  0  0  0  0  0
   -3.3273   -1.6485    1.5700 H   0  0  0  0  0  0  0  0  0  0  0  0
   -0.2097    2.9990    2.8684 H   0  0  0  0  0  0  0  0  0  0  0  0
    1.3903    2.2633    3.0980 H   0  0  0  0  0  0  0  0  0  0  0  0
   -0.0448    1.2325    2.8066 H   0  0  0  0  0  0  0  0  0  0  0  0
   -1.6023    1.2524   -2.9821 H   0  0  0  0  0  0  0  0  0  0  0  0
   -0.3199    2.4695   -3.0953 H   0  0  0  0  0  0  0  0  0  0  0  0
   -1.9653    2.9912   -2.7110 H   0  0  0  0  0  0  0  0  0  0  0  0
    5.2521   -0.4671   -2.0700 H   0  0  0  0  0  0  0  0  0  0  0  0
    5.5138   -1.3289   -0.4868 H   0  0  0  0  0  0  0  0  0  0  0  0
    6.6301   -0.0898   -1.0446 H   0  0  0  0  0  0  0  0  0  0  0  0
   -5.4796   -0.2011   -1.4819 H   0  0  0  0  0  0  0  0  0  0  0  0
   -6.7167   -0.5095   -0.2433 H   0  0  0  0  0  0  0  0  0  0  0  0
   -5.3897   -1.6726   -0.4591 H   0  0  0  0  0  0  0  0  0  0  0  0
    2.4713    4.0519   -0.2187 H   0  0  0  0  0  0  0  0  0  0  0  0
    4.0710    3.4713   -0.7848 H   0  0  0  0  0  0  0  0  0  0  0  0
    3.9518    4.5169    0.6469 H   0  0  0  0  0  0  0  0  0  0  0  0
   -4.4686    3.0305    0.6376 H   0  0  0  0  0  0  0  0  0  0  0  0
   -4.4348    3.9405   -0.8884 H   0  0  0  0  0  0  0  0  0  0  0  0
   -2.9311    3.7297    0.0345 H   0  0  0  0  0  0  0  0  0  0  0  0
  1  8  1  0  0  0  0
  1 43  1  0  0  0  0
  2 20  1  0  0  0  0
  2 26  1  0  0  0  0
  3 21  1  0  0  0  0
  3 27  1  0  0  0  0
  4 22  1  0  0  0  0
  4 28  1  0  0  0  0
  5 23  1  0  0  0  0
  5 29  1  0  0  0  0
  6 24  1  0  0  0  0
  6 30  1  0  0  0  0
  7 25  1  0  0  0  0
  7 31  1  0  0  0  0
  8  9  1  0  0  0  0
  8 10  1  0  0  0  0
  8 14  1  0  0  0  0
  9 11  1  0  0  0  0
  9 15  1  0  0  0  0
  9 32  1  0  0  0  0
 10 12  1  0  0  0  0
 10 33  1  0  0  0  0
 10 34  1  0  0  0  0
 11 13  1  0  0  0  0
 11 35  1  0  0  0  0
 11 36  1  0  0  0  0
 12 16  1  0  0  0  0
 12 18  2  0  0  0  0
 13 17  1  0  0  0  0
 13 19  2  0  0  0  0
 14 37  1  0  0  0  0
 14 38  1  0  0  0  0
 14 39  1  0  0  0  0
 15 40  1  0  0  0  0
 15 41  1  0  0  0  0
 15 42  1  0  0  0  0
 16 17  1  0  0  0  0
 16 20  2  0  0  0  0
 17 21  2  0  0  0  0
 18 22  1  0  0  0  0
 18 44  1  0  0  0  0
 19 23  1  0  0  0  0
 19 45  1  0  0  0  0
 20 24  1  0  0  0  0
 21 25  1  0  0  0  0
 22 24  2  0  0  0  0
 23 25  2  0  0  0  0
 26 46  1  0  0  0  0
 26 47  1  0  0  0  0
 26 48  1  0  0  0  0
 27 49  1  0  0  0  0
 27 50  1  0  0  0  0
 27 51  1  0  0  0  0
 28 52  1  0  0  0  0
 28 53  1  0  0  0  0
 28 54  1  0  0  0  0
 29 55  1  0  0  0  0
 29 56  1  0  0  0  0
 29 57  1  0  0  0  0
 30 58  1  0  0  0  0
 30 59  1  0  0  0  0
 30 60  1  0  0  0  0
 31 61  1  0  0  0  0
 31 62  1  0  0  0  0
 31 63  1  0  0  0  0
M  END
> <PUBCHEM_COMPOUND_CID>
23915

> <PUBCHEM_CONFORMER_RMSD>
0.8

> <PUBCHEM_CONFORMER_DIVERSEORDER>
5
12
15
17
11
2
13
20
22
9
10
8
1
14
7
3
21
16
6
19
4
18

> <PUBCHEM_MMFF94_PARTIAL_CHARGES>
29
1 -0.68
10 0.14
11 0.14
12 -0.14
13 -0.14
18 -0.15
19 -0.15
2 -0.36
20 0.08
21 0.08
22 0.08
23 0.08
24 0.08
25 0.08
26 0.28
27 0.28
28 0.28
29 0.28
3 -0.36
30 0.28
31 0.28
4 -0.36
43 0.4
44 0.15
45 0.15
5 -0.36
6 -0.36
7 -0.36
8 0.28

> <PUBCHEM_EFFECTIVE_ROTOR_COUNT>
6.8

> <PUBCHEM_PHARMACOPHORE_FEATURES>
10
1 1 acceptor
1 1 donor
1 2 acceptor
1 3 acceptor
1 4 acceptor
1 5 acceptor
1 6 acceptor
1 7 acceptor
6 12 16 18 20 22 24 rings
6 13 17 19 21 23 25 rings

> <PUBCHEM_HEAVY_ATOM_COUNT>
31

> <PUBCHEM_ATOM_DEF_STEREO_COUNT>
0

> <PUBCHEM_ATOM_UDEF_STEREO_COUNT>
2

> <PUBCHEM_BOND_DEF_STEREO_COUNT>
0

> <PUBCHEM_BOND_UDEF_STEREO_COUNT>
0

> <PUBCHEM_ISOTOPIC_ATOM_COUNT>
0

> <PUBCHEM_COMPONENT_COUNT>
1

> <PUBCHEM_CACTVS_TAUTO_COUNT>
1

> <PUBCHEM_CONFORMER_ID>
00005D6B00000009

> <PUBCHEM_MMFF94_ENERGY>
173.5635

> <PUBCHEM_FEATURE_SELFOVERLAP>
50.776

> <PUBCHEM_SHAPE_FINGERPRINT>
10165383 225 18337120011378253541
10675989 125 17471292851194017452
1100329 8 18341613746167462730
11370993 70 18410291436512349689
11421498 54 16415208836354790747
11578080 2 17097481000147313991
12035758 1 18339366373889586010
12035759 4 14299894286968763036
12236239 1 15985110707953221241
12422481 6 17905918081568845091
12788726 201 17055269580278455977
13140716 1 18266753548044631762
13402501 40 18408891719834858750
14787075 74 18201719613031412381
15324884 4 18117863189327034234
19591789 44 18339644546137003366
20905425 154 18190178975540388239
21033648 29 18340761624160402184
23419403 2 17539732047312327481
23559900 14 18193551160343111716
238 59 18120623913006207079
3298306 158 18337390440216043726
3383291 50 18270964536647524206
3524813 1 18410015441845044536
484989 97 18267873971926479787
5265222 85 18117579490686100582
57527295 17 17986094228963679085
59755656 215 18408322181723475655
81228 2 17686604045777642130

> <PUBCHEM_SHAPE_MULTIPOLES>
596.88
8.22
5.08
1.53
0.99
3.05
0.08
-3.96
-1.61
-0.98
-0.02
0.08
-0.74
1.43

> <PUBCHEM_SHAPE_SELFOVERLAP>
1272.596

> <PUBCHEM_SHAPE_VOLUME>
333.4

> <PUBCHEM_COORDINATE_TYPE>
2
5
10

$$$$
