75130910
  -OEChem-12232402303D

 72 76  0     1  0  0  0  0  0999 V2000
   -0.5656    2.0115   -0.2095 O   0  0  0  0  0  0  0  0  0  0  0  0
    0.1633    3.8824    1.8170 O   0  0  0  0  0  0  0  0  0  0  0  0
   -1.2130   -1.0882   -1.5170 O   0  0  0  0  0  0  0  0  0  0  0  0
   -2.2039    3.0711   -2.9321 O   0  0  0  0  0  0  0  0  0  0  0  0
   -3.5221   -2.4821   -0.2240 O   0  0  0  0  0  0  0  0  0  0  0  0
   -3.8928   -2.3562    2.1455 O   0  0  0  0  0  0  0  0  0  0  0  0
    1.2714   -2.8510   -0.0954 O   0  0  0  0  0  0  0  0  0  0  0  0
    0.2955    2.2966   -2.3291 O   0  0  0  0  0  0  0  0  0  0  0  0
    4.9033    0.0131   -1.2083 O   0  0  0  0  0  0  0  0  0  0  0  0
    3.8158   -2.5223   -1.0047 O   0  0  0  0  0  0  0  0  0  0  0  0
    0.7466    2.5572    1.8446 C   0  0  1  0  0  0  0  0  0  0  0  0
   -0.1518    1.7286    2.8192 C   0  0  1  0  0  0  0  0  0  0  0  0
    0.7732    2.0975    0.3502 C   0  0  1  0  0  0  0  0  0  0  0  0
    0.2260    0.2323    2.9618 C   0  0  0  0  0  0  0  0  0  0  0  0
    1.5395    0.8203    0.0499 C   0  0  0  0  0  0  0  0  0  0  0  0
   -0.6612   -0.6013    2.0644 C   0  0  0  0  0  0  0  0  0  0  0  0
    2.1779    2.7424    2.3854 C   0  0  0  0  0  0  0  0  0  0  0  0
   -0.3803   -0.7444    0.6800 C   0  0  0  0  0  0  0  0  0  0  0  0
    0.9762   -0.4675    0.1580 C   0  0  0  0  0  0  0  0  0  0  0  0
   -0.2094    2.3509    4.2302 C   0  0  0  0  0  0  0  0  0  0  0  0
   -2.0749    1.9097   -2.0876 C   0  0  1  0  0  0  0  0  0  0  0  0
   -2.1683    0.6413   -3.0033 C   0  0  1  0  0  0  0  0  0  0  0  0
   -1.3986   -1.2374   -0.1681 C   0  0  0  0  0  0  0  0  0  0  0  0
   -1.8477   -1.1246    2.6097 C   0  0  0  0  0  0  0  0  0  0  0  0
    2.8662    0.9516   -0.4133 C   0  0  0  0  0  0  0  0  0  0  0  0
   -0.6531    2.0972   -1.5742 C   0  0  0  0  0  0  0  0  0  0  0  0
    1.7688   -1.5789   -0.2073 C   0  0  0  0  0  0  0  0  0  0  0  0
   -2.3755   -0.6958   -2.2576 C   0  0  0  0  0  0  0  0  0  0  0  0
   -2.5192   -1.8124    0.4118 C   0  0  0  0  0  0  0  0  0  0  0  0
   -2.7292   -1.7613    1.7675 C   0  0  0  0  0  0  0  0  0  0  0  0
    3.6278   -0.1603   -0.7650 C   0  0  0  0  0  0  0  0  0  0  0  0
    3.0771   -1.4286   -0.6644 C   0  0  0  0  0  0  0  0  0  0  0  0
   -3.1581    2.0112   -1.0140 C   0  0  0  0  0  0  0  0  0  0  0  0
   -3.2879    0.7804   -4.0519 C   0  0  0  0  0  0  0  0  0  0  0  0
   -4.3875   -2.8189    0.8761 C   0  0  0  0  0  0  0  0  0  0  0  0
    1.4873   -3.5154    1.1439 C   0  0  0  0  0  0  0  0  0  0  0  0
    5.9382    0.0050   -0.2261 C   0  0  0  0  0  0  0  0  0  0  0  0
    3.7460   -2.9537   -2.3621 C   0  0  0  0  0  0  0  0  0  0  0  0
   -1.1830    1.8137    2.4446 H   0  0  0  0  0  0  0  0  0  0  0  0
    1.2605    2.9174   -0.1992 H   0  0  0  0  0  0  0  0  0  0  0  0
    0.0755   -0.1090    3.9949 H   0  0  0  0  0  0  0  0  0  0  0  0
    1.2852    0.0416    2.7662 H   0  0  0  0  0  0  0  0  0  0  0  0
    2.1821    3.3072    3.3237 H   0  0  0  0  0  0  0  0  0  0  0  0
    2.7803    3.3385    1.6894 H   0  0  0  0  0  0  0  0  0  0  0  0
    2.6920    1.7921    2.5512 H   0  0  0  0  0  0  0  0  0  0  0  0
    0.7426    2.2421    4.7596 H   0  0  0  0  0  0  0  0  0  0  0  0
   -0.9784    1.8533    4.8323 H   0  0  0  0  0  0  0  0  0  0  0  0
   -0.4666    3.4139    4.1959 H   0  0  0  0  0  0  0  0  0  0  0  0
   -1.2270    0.5583   -3.5644 H   0  0  0  0  0  0  0  0  0  0  0  0
    0.7422    4.4585    1.2892 H   0  0  0  0  0  0  0  0  0  0  0  0
   -2.0694   -1.0285    3.6679 H   0  0  0  0  0  0  0  0  0  0  0  0
    3.3090    1.9415   -0.5094 H   0  0  0  0  0  0  0  0  0  0  0  0
   -3.2886   -0.6157   -1.6606 H   0  0  0  0  0  0  0  0  0  0  0  0
   -2.5478   -1.4981   -2.9852 H   0  0  0  0  0  0  0  0  0  0  0  0
   -3.0788    1.2257   -0.2585 H   0  0  0  0  0  0  0  0  0  0  0  0
   -4.1584    1.9709   -1.4573 H   0  0  0  0  0  0  0  0  0  0  0  0
   -3.0947    2.9747   -0.4936 H   0  0  0  0  0  0  0  0  0  0  0  0
   -4.2682    0.8951   -3.5786 H   0  0  0  0  0  0  0  0  0  0  0  0
   -3.3295   -0.1075   -4.6928 H   0  0  0  0  0  0  0  0  0  0  0  0
   -3.1226    1.6365   -4.7131 H   0  0  0  0  0  0  0  0  0  0  0  0
   -1.5710    2.9868   -3.6663 H   0  0  0  0  0  0  0  0  0  0  0  0
   -4.4974   -3.9086    0.9164 H   0  0  0  0  0  0  0  0  0  0  0  0
   -5.3724   -2.3723    0.6979 H   0  0  0  0  0  0  0  0  0  0  0  0
    0.7797   -4.3461    1.2153 H   0  0  0  0  0  0  0  0  0  0  0  0
    1.3329   -2.8519    2.0002 H   0  0  0  0  0  0  0  0  0  0  0  0
    2.5032   -3.9208    1.1745 H   0  0  0  0  0  0  0  0  0  0  0  0
    6.8947    0.1513   -0.7351 H   0  0  0  0  0  0  0  0  0  0  0  0
    5.9638   -0.9554    0.2984 H   0  0  0  0  0  0  0  0  0  0  0  0
    5.7934    0.8206    0.4896 H   0  0  0  0  0  0  0  0  0  0  0  0
    4.3798   -3.8377   -2.4732 H   0  0  0  0  0  0  0  0  0  0  0  0
    4.1148   -2.1723   -3.0339 H   0  0  0  0  0  0  0  0  0  0  0  0
    2.7192   -3.2239   -2.6285 H   0  0  0  0  0  0  0  0  0  0  0  0
  1 13  1  0  0  0  0
  1 26  1  0  0  0  0
  2 11  1  0  0  0  0
  2 50  1  0  0  0  0
  3 23  1  0  0  0  0
  3 28  1  0  0  0  0
  4 21  1  0  0  0  0
  4 61  1  0  0  0  0
  5 29  1  0  0  0  0
  5 35  1  0  0  0  0
  6 30  1  0  0  0  0
  6 35  1  0  0  0  0
  7 27  1  0  0  0  0
  7 36  1  0  0  0  0
  8 26  2  0  0  0  0
  9 31  1  0  0  0  0
  9 37  1  0  0  0  0
 10 32  1  0  0  0  0
 10 38  1  0  0  0  0
 11 12  1  0  0  0  0
 11 13  1  0  0  0  0
 11 17  1  0  0  0  0
 12 14  1  0  0  0  0
 12 20  1  0  0  0  0
 12 39  1  0  0  0  0
 13 15  1  0  0  0  0
 13 40  1  0  0  0  0
 14 16  1  0  0  0  0
 14 41  1  0  0  0  0
 14 42  1  0  0  0  0
 15 19  1  0  0  0  0
 15 25  2  0  0  0  0
 16 18  1  0  0  0  0
 16 24  2  0  0  0  0
 17 43  1  0  0  0  0
 17 44  1  0  0  0  0
 17 45  1  0  0  0  0
 18 19  1  0  0  0  0
 18 23  2  0  0  0  0
 19 27  2  0  0  0  0
 20 46  1  0  0  0  0
 20 47  1  0  0  0  0
 20 48  1  0  0  0  0
 21 22  1  0  0  0  0
 21 26  1  0  0  0  0
 21 33  1  0  0  0  0
 22 28  1  0  0  0  0
 22 34  1  0  0  0  0
 22 49  1  0  0  0  0
 23 29  1  0  0  0  0
 24 30  1  0  0  0  0
 24 51  1  0  0  0  0
 25 31  1  0  0  0  0
 25 52  1  0  0  0  0
 27 32  1  0  0  0  0
 28 53  1  0  0  0  0
 28 54  1  0  0  0  0
 29 30  2  0  0  0  0
 31 32  2  0  0  0  0
 33 55  1  0  0  0  0
 33 56  1  0  0  0  0
 33 57  1  0  0  0  0
 34 58  1  0  0  0  0
 34 59  1  0  0  0  0
 34 60  1  0  0  0  0
 35 62  1  0  0  0  0
 35 63  1  0  0  0  0
 36 64  1  0  0  0  0
 36 65  1  0  0  0  0
 36 66  1  0  0  0  0
 37 67  1  0  0  0  0
 37 68  1  0  0  0  0
 37 69  1  0  0  0  0
 38 70  1  0  0  0  0
 38 71  1  0  0  0  0
 38 72  1  0  0  0  0
M  END
> <PUBCHEM_COMPOUND_CID>
75130910

> <PUBCHEM_CONFORMER_RMSD>
0.8

> <PUBCHEM_CONFORMER_DIVERSEORDER>
1
17
16
9
11
3
14
19
2
15
18
13
12
5
4
10
6
8
7

> <PUBCHEM_MMFF94_PARTIAL_CHARGES>
34
1 -0.43
10 -0.36
11 0.28
13 0.42
14 0.14
15 -0.14
16 -0.14
2 -0.68
21 0.34
23 0.08
24 -0.15
25 -0.15
26 0.66
27 0.08
28 0.28
29 0.08
3 -0.36
30 0.08
31 0.08
32 0.08
35 0.56
36 0.28
37 0.28
38 0.28
4 -0.68
5 -0.36
50 0.4
51 0.15
52 0.15
6 -0.36
61 0.4
7 -0.36
8 -0.57
9 -0.36

> <PUBCHEM_EFFECTIVE_ROTOR_COUNT>
5.2

> <PUBCHEM_PHARMACOPHORE_FEATURES>
14
1 10 acceptor
1 2 acceptor
1 2 donor
1 3 acceptor
1 4 acceptor
1 4 donor
1 5 acceptor
1 6 acceptor
1 7 acceptor
1 8 acceptor
1 9 acceptor
5 5 6 29 30 35 rings
6 15 19 25 27 31 32 rings
6 16 18 23 24 29 30 rings

> <PUBCHEM_HEAVY_ATOM_COUNT>
38

> <PUBCHEM_ATOM_DEF_STEREO_COUNT>
0

> <PUBCHEM_ATOM_UDEF_STEREO_COUNT>
5

> <PUBCHEM_BOND_DEF_STEREO_COUNT>
0

> <PUBCHEM_BOND_UDEF_STEREO_COUNT>
0

> <PUBCHEM_ISOTOPIC_ATOM_COUNT>
0

> <PUBCHEM_COMPONENT_COUNT>
1

> <PUBCHEM_CACTVS_TAUTO_COUNT>
1

> <PUBCHEM_CONFORMER_ID>
047A681E00000001

> <PUBCHEM_MMFF94_ENERGY>
180.6553

> <PUBCHEM_FEATURE_SELFOVERLAP>
71.227

> <PUBCHEM_SHAPE_FINGERPRINT>
11578080 2 18200869699006852793
12156800 1 17459725159993691664
12160290 23 17270317574923553242
12741549 16 18190470530831768793
12788726 201 17415268430465181336
13140716 1 17979658749173353250
13383668 90 16410749226093404380
133893 2 17200762735427425515
13911987 19 18058437872513984012
13965767 371 17181926082994498505
14713325 29 17967253087476654606
15324884 4 17683236229119896827
15420108 30 16316115729191079349
16114785 44 16301238919790620758
17980427 23 16343164479479507035
17980427 26 16913406569857102929
18603816 31 15616370483124271582
19319366 153 17473528167461232621
20600515 1 17900576584986689130
21285901 2 18042413606354738110
21304303 94 17679839549912098823
229495 10 17773876579026738753
23419403 2 18271522104273109784
24941158 1 17700662286040013953
25222932 49 15546565281911334223
2818148 4 17677035885597975457
3052486 1 17169241876290624961
3380486 77 17129616581100992387
3493558 16 18191331371554245121
376196 1 16685897668659318121
469060 322 17823444680541036662
484985 159 17978532844259835126
57527306 92 17131850762631457115
57527452 28 17474994224007593788

> <PUBCHEM_SHAPE_MULTIPOLES>
723.33
6.94
4.31
4.13
5.22
2.05
-1.67
-5.47
-2.01
1.82
2.1
-5.11
1.05
1.96

> <PUBCHEM_SHAPE_SELFOVERLAP>
1579.866

> <PUBCHEM_SHAPE_VOLUME>
389.1

> <PUBCHEM_COORDINATE_TYPE>
2
5
10

$$$$
