78385000
  -OEChem-12232402313D

 71 75  0     1  0  0  0  0  0999 V2000
   -0.6345   -1.9601   -0.6190 O   0  0  0  0  0  0  0  0  0  0  0  0
   -1.1023    0.4456    1.7913 O   0  0  0  0  0  0  0  0  0  0  0  0
   -2.2651   -3.8991    1.5643 O   0  0  0  0  0  0  0  0  0  0  0  0
   -3.3651    2.3004    1.1639 O   0  0  0  0  0  0  0  0  0  0  0  0
   -3.7670    3.0712   -1.0750 O   0  0  0  0  0  0  0  0  0  0  0  0
    1.4584    2.4861    1.0885 O   0  0  0  0  0  0  0  0  0  0  0  0
    0.2566   -3.0295    1.2192 O   0  0  0  0  0  0  0  0  0  0  0  0
    4.9952   -0.6798    0.7494 O   0  0  0  0  0  0  0  0  0  0  0  0
    4.0211    1.7493    1.6449 O   0  0  0  0  0  0  0  0  0  0  0  0
    0.6411   -1.7370   -2.7615 C   0  0  1  0  0  0  0  0  0  0  0  0
   -0.2096   -0.5663   -3.3571 C   0  0  1  0  0  0  0  0  0  0  0  0
    0.6856   -1.8746   -1.2086 C   0  0  1  0  0  0  0  0  0  0  0  0
    0.2425    0.8429   -2.8924 C   0  0  0  0  0  0  0  0  0  0  0  0
    1.5368   -0.8378   -0.4959 C   0  0  0  0  0  0  0  0  0  0  0  0
   -0.6092    1.3027   -1.7294 C   0  0  0  0  0  0  0  0  0  0  0  0
   -0.3100    0.9126   -0.3973 C   0  0  0  0  0  0  0  0  0  0  0  0
    1.0372    0.4062   -0.0624 C   0  0  0  0  0  0  0  0  0  0  0  0
    0.1551   -3.0907   -3.3259 C   0  0  0  0  0  0  0  0  0  0  0  0
   -0.1839   -0.5784   -4.8979 C   0  0  0  0  0  0  0  0  0  0  0  0
   -2.1004   -2.5099    1.2156 C   0  0  1  0  0  0  0  0  0  0  0  0
   -2.1199   -1.6790    2.5442 C   0  0  1  0  0  0  0  0  0  0  0  0
   -1.2960    1.0914    0.5992 C   0  0  0  0  0  0  0  0  0  0  0  0
   -1.7793    2.0299   -2.0128 C   0  0  0  0  0  0  0  0  0  0  0  0
    2.8780   -1.1745   -0.2184 C   0  0  0  0  0  0  0  0  0  0  0  0
   -0.6979   -2.5379    0.6218 C   0  0  0  0  0  0  0  0  0  0  0  0
    1.8962    1.2590    0.6647 C   0  0  0  0  0  0  0  0  0  0  0  0
   -2.2721   -0.1521    2.3646 C   0  0  0  0  0  0  0  0  0  0  0  0
   -2.3977    1.8785    0.3008 C   0  0  0  0  0  0  0  0  0  0  0  0
   -2.6247    2.3389   -0.9728 C   0  0  0  0  0  0  0  0  0  0  0  0
    3.7086   -0.3136    0.4956 C   0  0  0  0  0  0  0  0  0  0  0  0
    3.2146    0.9023    0.9447 C   0  0  0  0  0  0  0  0  0  0  0  0
   -3.2068   -2.1609    0.2206 C   0  0  0  0  0  0  0  0  0  0  0  0
   -3.2306   -2.1598    3.4969 C   0  0  0  0  0  0  0  0  0  0  0  0
   -4.2293    3.0468    0.2873 C   0  0  0  0  0  0  0  0  0  0  0  0
    1.6579    3.5789    0.1995 C   0  0  0  0  0  0  0  0  0  0  0  0
    5.9785   -0.3035   -0.2134 C   0  0  0  0  0  0  0  0  0  0  0  0
    4.0382    1.6017    3.0631 C   0  0  0  0  0  0  0  0  0  0  0  0
    1.6757   -1.6050   -3.1093 H   0  0  0  0  0  0  0  0  0  0  0  0
   -1.2572   -0.7311   -3.0684 H   0  0  0  0  0  0  0  0  0  0  0  0
    1.1628   -2.8467   -1.0149 H   0  0  0  0  0  0  0  0  0  0  0  0
    0.1223    1.5793   -3.6985 H   0  0  0  0  0  0  0  0  0  0  0  0
    1.3126    0.8740   -2.6613 H   0  0  0  0  0  0  0  0  0  0  0  0
   -0.9143   -3.2366   -3.1404 H   0  0  0  0  0  0  0  0  0  0  0  0
    0.6945   -3.9284   -2.8702 H   0  0  0  0  0  0  0  0  0  0  0  0
    0.3348   -3.1663   -4.4022 H   0  0  0  0  0  0  0  0  0  0  0  0
    0.8428   -0.5349   -5.2762 H   0  0  0  0  0  0  0  0  0  0  0  0
   -0.7339    0.2775   -5.3055 H   0  0  0  0  0  0  0  0  0  0  0  0
   -0.6677   -1.4710   -5.3046 H   0  0  0  0  0  0  0  0  0  0  0  0
   -1.1684   -1.8516    3.0662 H   0  0  0  0  0  0  0  0  0  0  0  0
   -2.0149    2.3417   -3.0255 H   0  0  0  0  0  0  0  0  0  0  0  0
    3.2755   -2.1311   -0.5533 H   0  0  0  0  0  0  0  0  0  0  0  0
   -3.1964    0.0358    1.8108 H   0  0  0  0  0  0  0  0  0  0  0  0
   -2.3952    0.3216    3.3461 H   0  0  0  0  0  0  0  0  0  0  0  0
   -4.1960   -2.2566    0.6800 H   0  0  0  0  0  0  0  0  0  0  0  0
   -3.1964   -2.8579   -0.6264 H   0  0  0  0  0  0  0  0  0  0  0  0
   -3.1063   -1.1514   -0.1854 H   0  0  0  0  0  0  0  0  0  0  0  0
   -3.0992   -3.2089    3.7789 H   0  0  0  0  0  0  0  0  0  0  0  0
   -4.2219   -2.0457    3.0471 H   0  0  0  0  0  0  0  0  0  0  0  0
   -3.2187   -1.5809    4.4273 H   0  0  0  0  0  0  0  0  0  0  0  0
   -1.6168   -4.1195    2.2555 H   0  0  0  0  0  0  0  0  0  0  0  0
   -4.2982    4.0770    0.6548 H   0  0  0  0  0  0  0  0  0  0  0  0
   -5.2285    2.5969    0.3122 H   0  0  0  0  0  0  0  0  0  0  0  0
    0.9824    4.3872    0.4929 H   0  0  0  0  0  0  0  0  0  0  0  0
    1.4481    3.3097   -0.8401 H   0  0  0  0  0  0  0  0  0  0  0  0
    2.6878    3.9395    0.2825 H   0  0  0  0  0  0  0  0  0  0  0  0
    6.0216    0.7855   -0.3147 H   0  0  0  0  0  0  0  0  0  0  0  0
    5.7610   -0.7631   -1.1827 H   0  0  0  0  0  0  0  0  0  0  0  0
    6.9517   -0.6614    0.1333 H   0  0  0  0  0  0  0  0  0  0  0  0
    4.7183    2.3512    3.4770 H   0  0  0  0  0  0  0  0  0  0  0  0
    4.4015    0.6077    3.3424 H   0  0  0  0  0  0  0  0  0  0  0  0
    3.0397    1.7672    3.4800 H   0  0  0  0  0  0  0  0  0  0  0  0
  1 12  1  0  0  0  0
  1 25  1  0  0  0  0
  2 22  1  0  0  0  0
  2 27  1  0  0  0  0
  3 20  1  0  0  0  0
  3 60  1  0  0  0  0
  4 28  1  0  0  0  0
  4 34  1  0  0  0  0
  5 29  1  0  0  0  0
  5 34  1  0  0  0  0
  6 26  1  0  0  0  0
  6 35  1  0  0  0  0
  7 25  2  0  0  0  0
  8 30  1  0  0  0  0
  8 36  1  0  0  0  0
  9 31  1  0  0  0  0
  9 37  1  0  0  0  0
 10 11  1  0  0  0  0
 10 12  1  0  0  0  0
 10 18  1  0  0  0  0
 10 38  1  0  0  0  0
 11 13  1  0  0  0  0
 11 19  1  0  0  0  0
 11 39  1  0  0  0  0
 12 14  1  0  0  0  0
 12 40  1  0  0  0  0
 13 15  1  0  0  0  0
 13 41  1  0  0  0  0
 13 42  1  0  0  0  0
 14 17  1  0  0  0  0
 14 24  2  0  0  0  0
 15 16  1  0  0  0  0
 15 23  2  0  0  0  0
 16 17  1  0  0  0  0
 16 22  2  0  0  0  0
 17 26  2  0  0  0  0
 18 43  1  0  0  0  0
 18 44  1  0  0  0  0
 18 45  1  0  0  0  0
 19 46  1  0  0  0  0
 19 47  1  0  0  0  0
 19 48  1  0  0  0  0
 20 21  1  0  0  0  0
 20 25  1  0  0  0  0
 20 32  1  0  0  0  0
 21 27  1  0  0  0  0
 21 33  1  0  0  0  0
 21 49  1  0  0  0  0
 22 28  1  0  0  0  0
 23 29  1  0  0  0  0
 23 50  1  0  0  0  0
 24 30  1  0  0  0  0
 24 51  1  0  0  0  0
 26 31  1  0  0  0  0
 27 52  1  0  0  0  0
 27 53  1  0  0  0  0
 28 29  2  0  0  0  0
 30 31  2  0  0  0  0
 32 54  1  0  0  0  0
 32 55  1  0  0  0  0
 32 56  1  0  0  0  0
 33 57  1  0  0  0  0
 33 58  1  0  0  0  0
 33 59  1  0  0  0  0
 34 61  1  0  0  0  0
 34 62  1  0  0  0  0
 35 63  1  0  0  0  0
 35 64  1  0  0  0  0
 35 65  1  0  0  0  0
 36 66  1  0  0  0  0
 36 67  1  0  0  0  0
 36 68  1  0  0  0  0
 37 69  1  0  0  0  0
 37 70  1  0  0  0  0
 37 71  1  0  0  0  0
M  END
> <PUBCHEM_COMPOUND_CID>
78385000

> <PUBCHEM_CONFORMER_RMSD>
0.8

> <PUBCHEM_CONFORMER_DIVERSEORDER>
1
17
23
9
4
22
14
8
19
7
5
2
24
25
15
6
21
16
13
20
18
3
12
11
10

> <PUBCHEM_MMFF94_PARTIAL_CHARGES>
31
1 -0.43
12 0.42
13 0.14
14 -0.14
15 -0.14
2 -0.36
20 0.34
22 0.08
23 -0.15
24 -0.15
25 0.66
26 0.08
27 0.28
28 0.08
29 0.08
3 -0.68
30 0.08
31 0.08
34 0.56
35 0.28
36 0.28
37 0.28
4 -0.36
5 -0.36
50 0.15
51 0.15
6 -0.36
60 0.4
7 -0.57
8 -0.36
9 -0.36

> <PUBCHEM_EFFECTIVE_ROTOR_COUNT>
5.2

> <PUBCHEM_PHARMACOPHORE_FEATURES>
12
1 2 acceptor
1 3 acceptor
1 3 donor
1 4 acceptor
1 5 acceptor
1 6 acceptor
1 7 acceptor
1 8 acceptor
1 9 acceptor
5 4 5 28 29 34 rings
6 14 17 24 26 30 31 rings
6 15 16 22 23 28 29 rings

> <PUBCHEM_HEAVY_ATOM_COUNT>
37

> <PUBCHEM_ATOM_DEF_STEREO_COUNT>
0

> <PUBCHEM_ATOM_UDEF_STEREO_COUNT>
5

> <PUBCHEM_BOND_DEF_STEREO_COUNT>
0

> <PUBCHEM_BOND_UDEF_STEREO_COUNT>
0

> <PUBCHEM_ISOTOPIC_ATOM_COUNT>
0

> <PUBCHEM_COMPONENT_COUNT>
1

> <PUBCHEM_CACTVS_TAUTO_COUNT>
1

> <PUBCHEM_CONFORMER_ID>
04AC0F6800000001

> <PUBCHEM_MMFF94_ENERGY>
172.6683

> <PUBCHEM_FEATURE_SELFOVERLAP>
61.074

> <PUBCHEM_SHAPE_FINGERPRINT>
10906281 52 18054807099744760696
11244481 83 15405330500328885095
11578080 2 17836974110643365661
12156800 1 17898605065953601719
12422481 6 18268448969595041491
12633257 1 18128279915317602602
12655364 131 16484722036365127726
12788726 201 17125872795331082420
13135754 10 18187643656455985026
133893 2 16126706794662329085
16114785 44 18054766623850916248
20600515 1 17823719498075969316
229495 10 17841425148471738152
23419403 2 17627829381205971854
244849 19 17555770658066236185
24941158 1 16986064252926188127
3380486 77 17831595532184762083
3493558 16 16520170647683973341
35225 105 15938064757237187628
376196 1 18056179298672014889
394222 165 17559091199823651941
469060 322 17266066145626733896
484985 159 17461962649440506098
5080951 261 17389065050188569600
57527306 92 17122237504820648786
57527573 199 18122919633018791240
57527585 103 17899663982019571564

> <PUBCHEM_SHAPE_MULTIPOLES>
708.62
6.99
4.27
4.08
7.08
0.08
2.41
-3.22
-4.8
-2.69
0.13
-1.8
2.51
3.32

> <PUBCHEM_SHAPE_SELFOVERLAP>
1544.29

> <PUBCHEM_SHAPE_VOLUME>
382.5

> <PUBCHEM_COORDINATE_TYPE>
2
5
10

$$$$
