14352824
  -OEChem-12232402313D

 58 61  0     1  0  0  0  0  0999 V2000
   -0.9139   -1.5888   -1.0314 O   0  0  0  0  0  0  0  0  0  0  0  0
   -1.3114    0.9107   -2.2454 O   0  0  0  0  0  0  0  0  0  0  0  0
    0.4796    2.1954    0.6917 O   0  0  0  0  0  0  0  0  0  0  0  0
   -3.4721    2.2448   -1.1072 O   0  0  0  0  0  0  0  0  0  0  0  0
    3.2410    2.3090    0.6043 O   0  0  0  0  0  0  0  0  0  0  0  0
    4.6925    0.1237   -0.2701 O   0  0  0  0  0  0  0  0  0  0  0  0
   -4.1108    1.5900    1.5191 O   0  0  0  0  0  0  0  0  0  0  0  0
   -0.8947   -0.3803   -0.2160 C   0  0  1  0  0  0  0  0  0  0  0  0
    0.3705   -2.2458   -0.9472 C   0  0  2  0  0  0  0  0  0  0  0  0
    0.3382   -3.3765    0.1081 C   0  0  1  0  0  0  0  0  0  0  0  0
   -0.7297   -3.2496    1.2424 C   0  0  1  0  0  0  0  0  0  0  0  0
   -0.7532   -1.8622    1.9270 C   0  0  0  0  0  0  0  0  0  0  0  0
   -1.4364   -0.7426    1.1560 C   0  0  0  0  0  0  0  0  0  0  0  0
    0.5662   -0.0329   -0.1710 C   0  0  0  0  0  0  0  0  0  0  0  0
    1.3020   -1.1321   -0.5993 C   0  0  0  0  0  0  0  0  0  0  0  0
   -1.7176    0.6549   -0.9450 C   0  0  0  0  0  0  0  0  0  0  0  0
    0.2359   -4.7320   -0.6084 C   0  0  0  0  0  0  0  0  0  0  0  0
   -2.1450   -3.7068    0.8565 C   0  0  0  0  0  0  0  0  0  0  0  0
    1.1950    1.1305    0.2443 C   0  0  0  0  0  0  0  0  0  0  0  0
   -2.4823   -0.0999    1.7002 C   0  0  0  0  0  0  0  0  0  0  0  0
    2.6851   -1.0995   -0.6416 C   0  0  0  0  0  0  0  0  0  0  0  0
   -2.7634    1.2949   -0.4028 C   0  0  0  0  0  0  0  0  0  0  0  0
   -3.1889    0.9834    0.9826 C   0  0  0  0  0  0  0  0  0  0  0  0
    2.5899    1.1781    0.2049 C   0  0  0  0  0  0  0  0  0  0  0  0
    3.3303    0.0705   -0.2369 C   0  0  0  0  0  0  0  0  0  0  0  0
   -2.3525    0.6238   -3.1552 C   0  0  0  0  0  0  0  0  0  0  0  0
    0.7290    2.6333    2.0277 C   0  0  0  0  0  0  0  0  0  0  0  0
   -2.9200    3.5324   -0.9110 C   0  0  0  0  0  0  0  0  0  0  0  0
    4.1445    2.1812    1.6990 C   0  0  0  0  0  0  0  0  0  0  0  0
    5.2922    0.5924   -1.4754 C   0  0  0  0  0  0  0  0  0  0  0  0
    0.6128   -2.6214   -1.9476 H   0  0  0  0  0  0  0  0  0  0  0  0
    1.3179   -3.3970    0.6080 H   0  0  0  0  0  0  0  0  0  0  0  0
   -0.4035   -3.9533    2.0235 H   0  0  0  0  0  0  0  0  0  0  0  0
    0.2715   -1.5598    2.1771 H   0  0  0  0  0  0  0  0  0  0  0  0
   -1.2514   -1.9867    2.8990 H   0  0  0  0  0  0  0  0  0  0  0  0
   -0.6593   -4.7913   -1.2360 H   0  0  0  0  0  0  0  0  0  0  0  0
    1.1052   -4.8889   -1.2568 H   0  0  0  0  0  0  0  0  0  0  0  0
    0.2120   -5.5560    0.1125 H   0  0  0  0  0  0  0  0  0  0  0  0
   -2.8401   -3.5498    1.6890 H   0  0  0  0  0  0  0  0  0  0  0  0
   -2.5388   -3.1750   -0.0133 H   0  0  0  0  0  0  0  0  0  0  0  0
   -2.1643   -4.7776    0.6294 H   0  0  0  0  0  0  0  0  0  0  0  0
   -2.8571   -0.3521    2.6867 H   0  0  0  0  0  0  0  0  0  0  0  0
    3.2513   -1.9627   -0.9761 H   0  0  0  0  0  0  0  0  0  0  0  0
   -2.9879   -0.2141   -2.8422 H   0  0  0  0  0  0  0  0  0  0  0  0
   -1.8889    0.3354   -4.1047 H   0  0  0  0  0  0  0  0  0  0  0  0
   -2.9570    1.5122   -3.3600 H   0  0  0  0  0  0  0  0  0  0  0  0
    1.4168    3.4830    2.0188 H   0  0  0  0  0  0  0  0  0  0  0  0
    1.1163    1.8293    2.6633 H   0  0  0  0  0  0  0  0  0  0  0  0
   -0.2213    2.9724    2.4508 H   0  0  0  0  0  0  0  0  0  0  0  0
   -1.8933    3.5893   -1.2893 H   0  0  0  0  0  0  0  0  0  0  0  0
   -2.9458    3.8220    0.1453 H   0  0  0  0  0  0  0  0  0  0  0  0
   -3.5247    4.2512   -1.4719 H   0  0  0  0  0  0  0  0  0  0  0  0
    5.1674    2.0672    1.3296 H   0  0  0  0  0  0  0  0  0  0  0  0
    3.8827    1.3472    2.3596 H   0  0  0  0  0  0  0  0  0  0  0  0
    4.0993    3.1051    2.2833 H   0  0  0  0  0  0  0  0  0  0  0  0
    5.0426   -0.0702   -2.3102 H   0  0  0  0  0  0  0  0  0  0  0  0
    6.3773    0.5919   -1.3409 H   0  0  0  0  0  0  0  0  0  0  0  0
    4.9679    1.6141   -1.6966 H   0  0  0  0  0  0  0  0  0  0  0  0
  1  8  1  0  0  0  0
  1  9  1  0  0  0  0
  2 16  1  0  0  0  0
  2 26  1  0  0  0  0
  3 19  1  0  0  0  0
  3 27  1  0  0  0  0
  4 22  1  0  0  0  0
  4 28  1  0  0  0  0
  5 24  1  0  0  0  0
  5 29  1  0  0  0  0
  6 25  1  0  0  0  0
  6 30  1  0  0  0  0
  7 23  2  0  0  0  0
  8 13  1  0  0  0  0
  8 14  1  0  0  0  0
  8 16  1  0  0  0  0
  9 10  1  0  0  0  0
  9 15  1  0  0  0  0
  9 31  1  0  0  0  0
 10 11  1  0  0  0  0
 10 17  1  0  0  0  0
 10 32  1  0  0  0  0
 11 12  1  0  0  0  0
 11 18  1  0  0  0  0
 11 33  1  0  0  0  0
 12 13  1  0  0  0  0
 12 34  1  0  0  0  0
 12 35  1  0  0  0  0
 13 20  2  0  0  0  0
 14 15  1  0  0  0  0
 14 19  2  0  0  0  0
 15 21  2  0  0  0  0
 16 22  2  0  0  0  0
 17 36  1  0  0  0  0
 17 37  1  0  0  0  0
 17 38  1  0  0  0  0
 18 39  1  0  0  0  0
 18 40  1  0  0  0  0
 18 41  1  0  0  0  0
 19 24  1  0  0  0  0
 20 23  1  0  0  0  0
 20 42  1  0  0  0  0
 21 25  1  0  0  0  0
 21 43  1  0  0  0  0
 22 23  1  0  0  0  0
 24 25  2  0  0  0  0
 26 44  1  0  0  0  0
 26 45  1  0  0  0  0
 26 46  1  0  0  0  0
 27 47  1  0  0  0  0
 27 48  1  0  0  0  0
 27 49  1  0  0  0  0
 28 50  1  0  0  0  0
 28 51  1  0  0  0  0
 28 52  1  0  0  0  0
 29 53  1  0  0  0  0
 29 54  1  0  0  0  0
 29 55  1  0  0  0  0
 30 56  1  0  0  0  0
 30 57  1  0  0  0  0
 30 58  1  0  0  0  0
M  END
> <PUBCHEM_COMPOUND_CID>
14352824

> <PUBCHEM_CONFORMER_RMSD>
0.8

> <PUBCHEM_CONFORMER_DIVERSEORDER>
1
2
3
4

> <PUBCHEM_MMFF94_PARTIAL_CHARGES>
28
1 -0.56
12 0.14
13 -0.28
14 -0.14
15 -0.14
16 -0.06
19 0.08
2 -0.36
20 -0.14
21 -0.15
22 0.09
23 0.54
24 0.08
25 0.08
26 0.28
27 0.28
28 0.28
29 0.28
3 -0.36
30 0.28
4 -0.36
42 0.15
43 0.15
5 -0.36
6 -0.36
7 -0.57
8 0.7
9 0.42

> <PUBCHEM_EFFECTIVE_ROTOR_COUNT>
5.8

> <PUBCHEM_PHARMACOPHORE_FEATURES>
11
1 1 acceptor
1 2 acceptor
1 3 acceptor
1 4 acceptor
1 5 acceptor
1 6 acceptor
1 7 acceptor
5 1 8 9 14 15 rings
6 14 15 19 21 24 25 rings
6 8 13 16 20 22 23 rings
7 1 8 9 10 11 12 13 rings

> <PUBCHEM_HEAVY_ATOM_COUNT>
30

> <PUBCHEM_ATOM_DEF_STEREO_COUNT>
4

> <PUBCHEM_ATOM_UDEF_STEREO_COUNT>
0

> <PUBCHEM_BOND_DEF_STEREO_COUNT>
0

> <PUBCHEM_BOND_UDEF_STEREO_COUNT>
0

> <PUBCHEM_ISOTOPIC_ATOM_COUNT>
0

> <PUBCHEM_COMPONENT_COUNT>
1

> <PUBCHEM_CACTVS_TAUTO_COUNT>
3

> <PUBCHEM_CONFORMER_ID>
00DB01B800000001

> <PUBCHEM_MMFF94_ENERGY>
130.1926

> <PUBCHEM_FEATURE_SELFOVERLAP>
57.342

> <PUBCHEM_SHAPE_FINGERPRINT>
10165383 225 18263948590575924581
10930396 42 17261836337253033250
1100329 8 18192423070499639026
12156800 1 16892798393695654843
12160290 23 17970611099077816070
12788726 201 17753322368554306842
13004483 165 17905326586698226099
131258 43 17038144012740266094
13140716 1 18343023281113448482
133893 2 17466750859169836871
13681431 1 17181341747913412287
14223421 5 17623857125199617162
14856354 85 16515696589073460714
15230672 131 18188505575769855998
16945 1 18055639408355229455
1813 80 17177429054403404866
20600515 1 16444785725396935529
21033648 29 18408882910857675080
22182313 1 18057324110089481740
22907989 373 18043248148512270982
23419403 2 17755598039880833647
23493267 7 18113903754056930504
23598288 3 16660629778797221084
238 59 18118659068732072877
2748010 2 18057606675840049636
350125 39 18196669585762494970
35225 105 17827605322587161667
495365 180 17899966141595852597
5265222 85 17969811682022946518
57527295 17 17760653564470208031
57527306 92 17059511633756353993
5845 1 17397256613172638759
70251023 43 17769652328341400486
7226269 152 18272365340145893872
81228 2 17825946206579986587

> <PUBCHEM_SHAPE_MULTIPOLES>
576.3
6.66
4.71
2.09
6.92
4.18
0.58
-5.38
0.44
-2.17
-0.6
-1.06
-0.76
1.86

> <PUBCHEM_SHAPE_SELFOVERLAP>
1255.247

> <PUBCHEM_SHAPE_VOLUME>
315.2

> <PUBCHEM_COORDINATE_TYPE>
2
5
10

$$$$
