181796
  -OEChem-12232402343D

 58 59  0     1  0  0  0  0  0999 V2000
   -4.6486   -2.4476   -0.9349 O   0  0  0  0  0  0  0  0  0  0  0  0
    5.2701   -1.8615    1.3918 O   0  0  0  0  0  0  0  0  0  0  0  0
   -6.7612   -1.0057    0.1285 O   0  0  0  0  0  0  0  0  0  0  0  0
    6.9102   -0.3519   -0.2524 O   0  0  0  0  0  0  0  0  0  0  0  0
   -6.3649    1.6141    0.9338 O   0  0  0  0  0  0  0  0  0  0  0  0
    5.7871    1.4791   -2.0006 O   0  0  0  0  0  0  0  0  0  0  0  0
   -0.7507    1.2084    0.8362 C   0  0  2  0  0  0  0  0  0  0  0  0
    0.7687    1.3729    0.5114 C   0  0  1  0  0  0  0  0  0  0  0  0
   -1.6743    1.3839   -0.3946 C   0  0  0  0  0  0  0  0  0  0  0  0
    1.3074    0.3003   -0.4635 C   0  0  0  0  0  0  0  0  0  0  0  0
   -1.2328    2.1472    1.9513 C   0  0  0  0  0  0  0  0  0  0  0  0
    1.0584    2.7875   -0.0187 C   0  0  0  0  0  0  0  0  0  0  0  0
   -3.0343    0.7448   -0.2545 C   0  0  0  0  0  0  0  0  0  0  0  0
    2.8078    0.1254   -0.4073 C   0  0  0  0  0  0  0  0  0  0  0  0
   -3.2137   -0.5676   -0.6623 C   0  0  0  0  0  0  0  0  0  0  0  0
    3.3497   -0.7959    0.4734 C   0  0  0  0  0  0  0  0  0  0  0  0
   -4.0794    1.4816    0.2802 C   0  0  0  0  0  0  0  0  0  0  0  0
    3.6102    0.8895   -1.2378 C   0  0  0  0  0  0  0  0  0  0  0  0
   -4.4706   -1.1584   -0.5323 C   0  0  0  0  0  0  0  0  0  0  0  0
    4.7342   -0.9576    0.5250 C   0  0  0  0  0  0  0  0  0  0  0  0
   -5.3362    0.8906    0.4103 C   0  0  0  0  0  0  0  0  0  0  0  0
    4.9947    0.7276   -1.1863 C   0  0  0  0  0  0  0  0  0  0  0  0
   -5.5319   -0.4294    0.0040 C   0  0  0  0  0  0  0  0  0  0  0  0
    5.5567   -0.1959   -0.3049 C   0  0  0  0  0  0  0  0  0  0  0  0
   -4.4242   -3.4670    0.0370 C   0  0  0  0  0  0  0  0  0  0  0  0
    5.5949   -1.3922    2.6989 C   0  0  0  0  0  0  0  0  0  0  0  0
   -7.6519   -0.8753   -0.9771 C   0  0  0  0  0  0  0  0  0  0  0  0
    7.4245   -1.6468   -0.5548 C   0  0  0  0  0  0  0  0  0  0  0  0
   -0.8698    0.1837    1.2161 H   0  0  0  0  0  0  0  0  0  0  0  0
    1.3057    1.2668    1.4645 H   0  0  0  0  0  0  0  0  0  0  0  0
   -1.7959    2.4487   -0.6353 H   0  0  0  0  0  0  0  0  0  0  0  0
   -1.2019    0.9517   -1.2850 H   0  0  0  0  0  0  0  0  0  0  0  0
    1.0104    0.5273   -1.4954 H   0  0  0  0  0  0  0  0  0  0  0  0
    0.8412   -0.6678   -0.2358 H   0  0  0  0  0  0  0  0  0  0  0  0
   -1.3548    3.1777    1.6033 H   0  0  0  0  0  0  0  0  0  0  0  0
   -0.5203    2.1532    2.7834 H   0  0  0  0  0  0  0  0  0  0  0  0
   -2.1916    1.8147    2.3610 H   0  0  0  0  0  0  0  0  0  0  0  0
    2.1350    2.9673   -0.0924 H   0  0  0  0  0  0  0  0  0  0  0  0
    0.6239    2.9439   -1.0113 H   0  0  0  0  0  0  0  0  0  0  0  0
    0.6670    3.5594    0.6500 H   0  0  0  0  0  0  0  0  0  0  0  0
   -2.3880   -1.1386   -1.0787 H   0  0  0  0  0  0  0  0  0  0  0  0
    2.7109   -1.3891    1.1223 H   0  0  0  0  0  0  0  0  0  0  0  0
   -3.9270    2.5122    0.5899 H   0  0  0  0  0  0  0  0  0  0  0  0
    3.1700    1.6035   -1.9287 H   0  0  0  0  0  0  0  0  0  0  0  0
   -6.0447    2.5047    1.1577 H   0  0  0  0  0  0  0  0  0  0  0  0
    5.2255    2.0625   -2.5394 H   0  0  0  0  0  0  0  0  0  0  0  0
   -4.6123   -4.4360   -0.4333 H   0  0  0  0  0  0  0  0  0  0  0  0
   -5.1083   -3.3500    0.8834 H   0  0  0  0  0  0  0  0  0  0  0  0
   -3.3869   -3.4424    0.3858 H   0  0  0  0  0  0  0  0  0  0  0  0
    6.0243   -2.2237    3.2643 H   0  0  0  0  0  0  0  0  0  0  0  0
    4.6946   -1.0449    3.2157 H   0  0  0  0  0  0  0  0  0  0  0  0
    6.3334   -0.5860    2.6472 H   0  0  0  0  0  0  0  0  0  0  0  0
   -7.2287   -1.3455   -1.8703 H   0  0  0  0  0  0  0  0  0  0  0  0
   -8.5869   -1.3832   -0.7251 H   0  0  0  0  0  0  0  0  0  0  0  0
   -7.8692    0.1790   -1.1751 H   0  0  0  0  0  0  0  0  0  0  0  0
    7.6013   -2.2053    0.3686 H   0  0  0  0  0  0  0  0  0  0  0  0
    6.7623   -2.2110   -1.2208 H   0  0  0  0  0  0  0  0  0  0  0  0
    8.3860   -1.5175   -1.0603 H   0  0  0  0  0  0  0  0  0  0  0  0
  1 19  1  0  0  0  0
  1 25  1  0  0  0  0
  2 20  1  0  0  0  0
  2 26  1  0  0  0  0
  3 23  1  0  0  0  0
  3 27  1  0  0  0  0
  4 24  1  0  0  0  0
  4 28  1  0  0  0  0
  5 21  1  0  0  0  0
  5 45  1  0  0  0  0
  6 22  1  0  0  0  0
  6 46  1  0  0  0  0
  7  8  1  0  0  0  0
  7  9  1  0  0  0  0
  7 11  1  0  0  0  0
  7 29  1  0  0  0  0
  8 10  1  0  0  0  0
  8 12  1  0  0  0  0
  8 30  1  0  0  0  0
  9 13  1  0  0  0  0
  9 31  1  0  0  0  0
  9 32  1  0  0  0  0
 10 14  1  0  0  0  0
 10 33  1  0  0  0  0
 10 34  1  0  0  0  0
 11 35  1  0  0  0  0
 11 36  1  0  0  0  0
 11 37  1  0  0  0  0
 12 38  1  0  0  0  0
 12 39  1  0  0  0  0
 12 40  1  0  0  0  0
 13 15  1  0  0  0  0
 13 17  2  0  0  0  0
 14 16  1  0  0  0  0
 14 18  2  0  0  0  0
 15 19  2  0  0  0  0
 15 41  1  0  0  0  0
 16 20  2  0  0  0  0
 16 42  1  0  0  0  0
 17 21  1  0  0  0  0
 17 43  1  0  0  0  0
 18 22  1  0  0  0  0
 18 44  1  0  0  0  0
 19 23  1  0  0  0  0
 20 24  1  0  0  0  0
 21 23  2  0  0  0  0
 22 24  2  0  0  0  0
 25 47  1  0  0  0  0
 25 48  1  0  0  0  0
 25 49  1  0  0  0  0
 26 50  1  0  0  0  0
 26 51  1  0  0  0  0
 26 52  1  0  0  0  0
 27 53  1  0  0  0  0
 27 54  1  0  0  0  0
 27 55  1  0  0  0  0
 28 56  1  0  0  0  0
 28 57  1  0  0  0  0
 28 58  1  0  0  0  0
M  END
> <PUBCHEM_COMPOUND_CID>
181796

> <PUBCHEM_CONFORMER_RMSD>
1

> <PUBCHEM_CONFORMER_DIVERSEORDER>
5
50
32
84
28
51
63
93
74
14
69
104
108
59
114
71
23
34
102
38
86
64
105
101
54
103
36
52
33
87
30
46
80
24
68
45
37
113
121
9
107
25
89
35
106
81
99
112
48
117
21
120
66
13
72
55
16
41
76
49
116
111
20
4
56
57
22
27
115
61
65
19
12
43
78
70
95
77
62
98
42
75
85
83
53
110
91
26
58
90
92
39
100
97
2
73
6
109
96
118
67
79
18
88
7
40
44
119
47
8
3
60
94
82
1
11
15
10
17
31
29

> <PUBCHEM_MMFF94_PARTIAL_CHARGES>
30
1 -0.36
10 0.14
13 -0.14
14 -0.14
15 -0.15
16 -0.15
17 -0.15
18 -0.15
19 0.08
2 -0.36
20 0.08
21 0.08
22 0.08
23 0.08
24 0.08
25 0.28
26 0.28
27 0.28
28 0.28
3 -0.36
4 -0.36
41 0.15
42 0.15
43 0.15
44 0.15
45 0.45
46 0.45
5 -0.53
6 -0.53
9 0.14

> <PUBCHEM_EFFECTIVE_ROTOR_COUNT>
9

> <PUBCHEM_PHARMACOPHORE_FEATURES>
11
1 1 acceptor
1 11 hydrophobe
1 12 hydrophobe
1 2 acceptor
1 3 acceptor
1 4 acceptor
1 5 donor
1 6 donor
4 7 8 9 10 hydrophobe
6 13 15 17 19 21 23 rings
6 14 16 18 20 22 24 rings

> <PUBCHEM_HEAVY_ATOM_COUNT>
28

> <PUBCHEM_ATOM_DEF_STEREO_COUNT>
2

> <PUBCHEM_ATOM_UDEF_STEREO_COUNT>
0

> <PUBCHEM_BOND_DEF_STEREO_COUNT>
0

> <PUBCHEM_BOND_UDEF_STEREO_COUNT>
0

> <PUBCHEM_ISOTOPIC_ATOM_COUNT>
0

> <PUBCHEM_COMPONENT_COUNT>
1

> <PUBCHEM_CACTVS_TAUTO_COUNT>
44

> <PUBCHEM_CONFORMER_ID>
0002C62400000005

> <PUBCHEM_MMFF94_ENERGY>
118.7176

> <PUBCHEM_FEATURE_SELFOVERLAP>
55.998

> <PUBCHEM_SHAPE_FINGERPRINT>
10 15 16702296863085483752
10299344 5 18408046203872244261
10319926 262 17988638606281049361
10595046 47 18186524293516215140
10622 236 17534043200115365930
11135609 149 16009846374568953746
11443803 9 18268720562727885692
11524674 6 17132113546459056999
117089 54 17682690867533138315
12166972 35 18259990366597784332
12236239 1 18409733946148079580
12516196 113 17131836469170251345
13533116 47 17604149238539589200
13668630 136 18409452445359269750
14068700 675 18343019995142090481
14347332 77 18040709225893153996
15183329 4 18040434386540233971
15250474 111 18335130990665008947
15348495 7 15697707199116299662
17134984 74 17385725816058293498
17492 89 18051692450223739431
17857418 61 18335136496691139339
21033648 29 15769489825068807905
220451 1 18333737917974623844
22061861 79 16081085957071206386
23035841 295 18343306946117096628
23081809 10 18261396628662606497
23516275 137 18046087985126104618
23522609 53 18191897606725644509
23559900 14 18197772414023174641
23569914 152 15146531761156716035
2838139 119 7853577868387028415
3004659 81 18335139782847438580
3178227 256 15267338497710475126
335352 9 18343301475547528293
3383291 50 17703505580524293495
3411729 13 17701527627635659696
394071 54 14764338362898720032
397830 11 16127795495894486634
4015057 19 17313395555805722860
4073 2 18117561953221735880
4098825 35 17458621173189276717
439807 62 18188211013436677363
5104073 3 18059579152397825777
559249 180 18343584032560377317
59682541 52 16660361468201058766
86090 222 16414660223070360788
999808 66 18041856090336812883

> <PUBCHEM_SHAPE_MULTIPOLES>
541.01
21.65
2.67
1.51
0.86
0.87
-0.67
10.89
2.14
-2.15
-0.41
2.38
-0.05
-2.89

> <PUBCHEM_SHAPE_SELFOVERLAP>
1126.888

> <PUBCHEM_SHAPE_VOLUME>
310.6

> <PUBCHEM_COORDINATE_TYPE>
2
5
10

$$$$
