14078177
  -OEChem-12232402333D

 50 52  0     1  0  0  0  0  0999 V2000
   -2.4375   -2.4106    2.0054 O   0  0  0  0  0  0  0  0  0  0  0  0
   -2.9939    3.0208   -1.1914 O   0  0  0  0  0  0  0  0  0  0  0  0
   -4.4530    2.0516    0.9636 O   0  0  0  0  0  0  0  0  0  0  0  0
    2.9020    1.2444    1.8547 O   0  0  0  0  0  0  0  0  0  0  0  0
    4.9657    1.0450    0.0044 O   0  0  0  0  0  0  0  0  0  0  0  0
   -0.2845   -2.5074   -0.9326 C   0  0  1  0  0  0  0  0  0  0  0  0
   -0.1782   -0.9891   -1.2392 C   0  0  1  0  0  0  0  0  0  0  0  0
   -0.5267   -2.7519    0.5706 C   0  0  1  0  0  0  0  0  0  0  0  0
   -1.3235   -0.2012   -0.6302 C   0  0  0  0  0  0  0  0  0  0  0  0
   -1.7486   -1.9942    1.0773 C   0  0  0  0  0  0  0  0  0  0  0  0
   -2.0640   -0.6789    0.4618 C   0  0  0  0  0  0  0  0  0  0  0  0
   -1.3482   -3.1680   -1.8288 C   0  0  0  0  0  0  0  0  0  0  0  0
    1.2067   -0.4402   -0.9011 C   0  0  0  0  0  0  0  0  0  0  0  0
   -0.6293   -4.2393    0.9162 C   0  0  0  0  0  0  0  0  0  0  0  0
   -1.6529    1.0536   -1.1725 C   0  0  0  0  0  0  0  0  0  0  0  0
   -3.1154    0.0828    0.9900 C   0  0  0  0  0  0  0  0  0  0  0  0
    1.4262    0.1581    0.3342 C   0  0  0  0  0  0  0  0  0  0  0  0
    2.2336   -0.5436   -1.8322 C   0  0  0  0  0  0  0  0  0  0  0  0
   -2.6980    1.8099   -0.6427 C   0  0  0  0  0  0  0  0  0  0  0  0
   -3.4289    1.3237    0.4368 C   0  0  0  0  0  0  0  0  0  0  0  0
    2.6906    0.6598    0.6428 C   0  0  0  0  0  0  0  0  0  0  0  0
    3.4978   -0.0419   -1.5238 C   0  0  0  0  0  0  0  0  0  0  0  0
    3.7264    0.5598   -0.2862 C   0  0  0  0  0  0  0  0  0  0  0  0
   -2.3242    4.1585   -0.6511 C   0  0  0  0  0  0  0  0  0  0  0  0
    2.6751    2.6497    1.9451 C   0  0  0  0  0  0  0  0  0  0  0  0
    5.8827    0.1487    0.6289 C   0  0  0  0  0  0  0  0  0  0  0  0
    0.6685   -2.9858   -1.2005 H   0  0  0  0  0  0  0  0  0  0  0  0
   -0.2883   -0.8743   -2.3288 H   0  0  0  0  0  0  0  0  0  0  0  0
    0.3283   -2.3592    1.1354 H   0  0  0  0  0  0  0  0  0  0  0  0
   -1.3293   -4.2575   -1.7267 H   0  0  0  0  0  0  0  0  0  0  0  0
   -2.3601   -2.8241   -1.5942 H   0  0  0  0  0  0  0  0  0  0  0  0
   -1.1547   -2.9464   -2.8841 H   0  0  0  0  0  0  0  0  0  0  0  0
   -1.5631   -4.6803    0.5521 H   0  0  0  0  0  0  0  0  0  0  0  0
    0.2111   -4.7998    0.4942 H   0  0  0  0  0  0  0  0  0  0  0  0
   -0.6112   -4.3825    2.0026 H   0  0  0  0  0  0  0  0  0  0  0  0
   -1.0892    1.4426   -2.0181 H   0  0  0  0  0  0  0  0  0  0  0  0
   -3.6930   -0.2837    1.8353 H   0  0  0  0  0  0  0  0  0  0  0  0
    0.6440    0.2381    1.0827 H   0  0  0  0  0  0  0  0  0  0  0  0
    2.0675   -1.0121   -2.7983 H   0  0  0  0  0  0  0  0  0  0  0  0
    4.3001   -0.1232   -2.2522 H   0  0  0  0  0  0  0  0  0  0  0  0
   -4.8443    1.5595    1.7057 H   0  0  0  0  0  0  0  0  0  0  0  0
   -2.5636    4.2787    0.4101 H   0  0  0  0  0  0  0  0  0  0  0  0
   -2.6672    5.0459   -1.1899 H   0  0  0  0  0  0  0  0  0  0  0  0
   -1.2416    4.0647   -0.7838 H   0  0  0  0  0  0  0  0  0  0  0  0
    1.6306    2.8848    1.7166 H   0  0  0  0  0  0  0  0  0  0  0  0
    3.3399    3.1918    1.2653 H   0  0  0  0  0  0  0  0  0  0  0  0
    2.8889    2.9661    2.9696 H   0  0  0  0  0  0  0  0  0  0  0  0
    6.0839   -0.7085   -0.0214 H   0  0  0  0  0  0  0  0  0  0  0  0
    5.4914   -0.1938    1.5922 H   0  0  0  0  0  0  0  0  0  0  0  0
    6.8202    0.6838    0.8027 H   0  0  0  0  0  0  0  0  0  0  0  0
  1 10  2  0  0  0  0
  2 19  1  0  0  0  0
  2 24  1  0  0  0  0
  3 20  1  0  0  0  0
  3 41  1  0  0  0  0
  4 21  1  0  0  0  0
  4 25  1  0  0  0  0
  5 23  1  0  0  0  0
  5 26  1  0  0  0  0
  6  7  1  0  0  0  0
  6  8  1  0  0  0  0
  6 12  1  0  0  0  0
  6 27  1  0  0  0  0
  7  9  1  0  0  0  0
  7 13  1  0  0  0  0
  7 28  1  0  0  0  0
  8 10  1  0  0  0  0
  8 14  1  0  0  0  0
  8 29  1  0  0  0  0
  9 11  1  0  0  0  0
  9 15  2  0  0  0  0
 10 11  1  0  0  0  0
 11 16  2  0  0  0  0
 12 30  1  0  0  0  0
 12 31  1  0  0  0  0
 12 32  1  0  0  0  0
 13 17  2  0  0  0  0
 13 18  1  0  0  0  0
 14 33  1  0  0  0  0
 14 34  1  0  0  0  0
 14 35  1  0  0  0  0
 15 19  1  0  0  0  0
 15 36  1  0  0  0  0
 16 20  1  0  0  0  0
 16 37  1  0  0  0  0
 17 21  1  0  0  0  0
 17 38  1  0  0  0  0
 18 22  2  0  0  0  0
 18 39  1  0  0  0  0
 19 20  2  0  0  0  0
 21 23  2  0  0  0  0
 22 23  1  0  0  0  0
 22 40  1  0  0  0  0
 24 42  1  0  0  0  0
 24 43  1  0  0  0  0
 24 44  1  0  0  0  0
 25 45  1  0  0  0  0
 25 46  1  0  0  0  0
 25 47  1  0  0  0  0
 26 48  1  0  0  0  0
 26 49  1  0  0  0  0
 26 50  1  0  0  0  0
M  END
> <PUBCHEM_COMPOUND_CID>
14078177

> <PUBCHEM_CONFORMER_RMSD>
0.8

> <PUBCHEM_CONFORMER_DIVERSEORDER>
1
6
11
5
10
4
7
12
8
9
3
2

> <PUBCHEM_MMFF94_PARTIAL_CHARGES>
29
1 -0.57
10 0.42
11 0.09
13 -0.14
15 -0.15
16 -0.15
17 -0.15
18 -0.15
19 0.08
2 -0.36
20 0.08
21 0.08
22 -0.15
23 0.08
24 0.28
25 0.28
26 0.28
3 -0.53
36 0.15
37 0.15
38 0.15
39 0.15
4 -0.36
40 0.15
41 0.45
5 -0.36
7 0.29
8 0.06
9 -0.14

> <PUBCHEM_EFFECTIVE_ROTOR_COUNT>
4.6

> <PUBCHEM_PHARMACOPHORE_FEATURES>
8
1 1 acceptor
1 2 acceptor
1 3 donor
1 4 acceptor
1 5 acceptor
6 13 17 18 21 22 23 rings
6 6 7 8 9 10 11 rings
6 9 11 15 16 19 20 rings

> <PUBCHEM_HEAVY_ATOM_COUNT>
26

> <PUBCHEM_ATOM_DEF_STEREO_COUNT>
3

> <PUBCHEM_ATOM_UDEF_STEREO_COUNT>
0

> <PUBCHEM_BOND_DEF_STEREO_COUNT>
0

> <PUBCHEM_BOND_UDEF_STEREO_COUNT>
0

> <PUBCHEM_ISOTOPIC_ATOM_COUNT>
0

> <PUBCHEM_COMPONENT_COUNT>
1

> <PUBCHEM_CACTVS_TAUTO_COUNT>
12

> <PUBCHEM_CONFORMER_ID>
00D6D0E100000001

> <PUBCHEM_MMFF94_ENERGY>
105.5352

> <PUBCHEM_FEATURE_SELFOVERLAP>
40.622

> <PUBCHEM_SHAPE_FINGERPRINT>
10165383 225 18121808078355224597
11725454 13 18272652307552332807
12156800 1 13960356811425589368
12596602 18 16443643379374780657
12788726 201 18190439718799683927
13004483 165 17554595571645930358
131258 38 15653271737907332979
13134695 92 17258758336219190167
13140716 1 18116733978585936149
133893 2 17466756339669770303
13402501 40 18272937106781340200
13583140 156 18341889749371402818
13681431 1 17188404972266724103
13878862 14 17472979498570145021
13965767 371 16954225573818750692
14251764 3 18340206297752396833
15131766 46 16113379579863429603
15230672 131 18188779328384954998
15295992 7 18273497875043797304
18219364 16 17775014530384694026
21033648 29 18341320116069690824
21524375 3 18340769243511006143
22149856 69 17247267418578671233
23419403 2 17623899718238005935
23559900 14 17246410889749002845
3187 122 17691947676557201249
35225 105 18261381282569969401
469060 322 16333822182565643762
495365 180 17537994772170872645
5265222 85 18263100902573461278
7808743 9 18335994163517687380
81228 2 18123750013537617415
84936 182 17834113048481334893
90316 7 18047205312472999347
9981440 41 18189333477047540313

> <PUBCHEM_SHAPE_MULTIPOLES>
505.72
7.95
4.45
1.83
9.41
0.66
-0.1
-5.68
-1.79
-4.62
-0.31
0.24
0.3
1.71

> <PUBCHEM_SHAPE_SELFOVERLAP>
1089.05

> <PUBCHEM_SHAPE_VOLUME>
278.7

> <PUBCHEM_COORDINATE_TYPE>
2
5
10

$$$$
